Adsorption isotherm of Sulfur dioxide on MIL-47
DOI: 10.1016/j.inoche.2014.06.003
Adsorbate Sulfur dioxide: InChIKey RAHZWNYVWXNFOC-UHFFFAOYSA-N
Temperature: 298 K
Tabular data in the source: 0
pressure (bar)	uptake (mmol/g)
0.0738006	1.83611
0.0968523	3.02937
0.240957	7.63532
0.494812	8.64603
0.749894	9.49286
0.984147	9.48611
2.44844	10.1492
4.79248	10.6468
7.38006	10.6361
9.84147	10.8004
