Adsorption isotherm of Sulfur dioxide on IRMOF-10
DOI: 10.1016/j.inoche.2014.06.003
Adsorbate Sulfur dioxide: InChIKey RAHZWNYVWXNFOC-UHFFFAOYSA-N
Temperature: 298 K
Tabular data in the source: 0
pressure (bar)	uptake (mmol/g)
0.000931448	0.0289017
0.0644829	0.0722543
0.174082	0.137283
0.282758	0.195087
0.391435	0.25289
