Adsorption isotherm of Nitrogen on nanocage Co3O4
DOI: 10.1016/j.jpowsour.2015.07.014
Article source: Figure 4- N2
Adsorbate Nitrogen: InChIKey IJGRMHOSHXDMSA-UHFFFAOYSA-N
Kind: experiment
Temperature: 77 K
Tabular data in the source: 0
pressure (bar)	uptake (cm3(STP)/g)
0.000861	7.489
0.000932	7.795
0.003445	14.048
0.005036	11.68
0.008147	17.348
0.009079	17.002
0.015108	18.43
0.015239	18.439
0.025372	19.106
0.026963	19.239
0.050814	20.519
0.052598	21.371
0.073927	22.145
0.078892	23.104
0.098832	23.319
0.103737	24.038
0.123606	24.706
0.130162	25.877
0.149768	26.066
0.154207	26.625
0.174147	27.32
0.180571	28.385
0.201242	28.893
0.205284	29.133
0.241579	30.947
0.244558	31.586
0.282119	33.187
0.285828	33.587
0.322659	35.241
0.325436	35.853
0.362328	37.907
0.366766	38.156
0.384589	38.894
0.40453	40.254
0.406516	40.36
0.425261	41.533
0.446195	42.627
0.465132	43.88
0.485671	45.239
0.506736	46.732
0.526475	47.876
0.526738	47.905
0.547206	49.717
0.567542	51.449
0.586155	53.314
0.606825	54.594
0.630738	57.843
0.646302	58.27
0.66757	63.78
0.68598	62.612
0.707968	72.832
0.72572	68.976
0.752156	84.969
0.768651	77.815
0.789514	96.547
0.808989	87.478
0.831513	110.84
0.848404	98.896
0.869875	124.573
0.889674	114.093
0.914651	142.484
0.927499	130.886
0.95592	165.477
0.966195	159.625
0.993694	234.708
0.995883	241.217
