Adsorption isotherm of Carbon Dioxide on PKU-17
DOI: 10.1002/anie.201501718
Article source: Figure 4b
Adsorbate Carbon Dioxide: InChIKey CURLTUGMZLYLDI-UHFFFAOYSA-N
Kind: experiment
Temperature: 273 K
Tabular data in the source: 0
pressure (bar)	uptake (mmol/g)
0.009055	0.036469
0.009164	0.008091
0.018304	0.022263
0.022863	0.032389
0.029728	0.040484
0.036391	0.101282
0.038883	0.050602
0.04345	0.058701
0.059478	0.074887
0.075266	0.153911
0.086977	0.097132
0.112169	0.121408
0.130201	0.214617
0.135062	0.145689
0.16486	0.16793
0.187777	0.18613
0.215292	0.204321
0.237936	0.293467
0.247396	0.22453
0.28179	0.246762
0.334535	0.279094
0.348041	0.354068
0.387312	0.303318
0.435475	0.331605
0.458144	0.41467
0.488228	0.36191
0.543295	0.388157
0.570616	0.457024
0.591467	0.414416
0.648833	0.440659
0.662431	0.491309
0.699318	0.46286
0.772635	0.525559
0.804895	0.505227
0.882847	0.557782
0.908172	0.547598
1.01605	0.589961
