Adsorption isotherm of Nitrogen on PKU-17
DOI: 10.1002/anie.201501718
Article source: Figure 4a
Adsorbate Nitrogen: InChIKey IJGRMHOSHXDMSA-UHFFFAOYSA-N
Kind: experiment
Temperature: 77 K
Tabular data in the source: 0
pressure (bar)	uptake (cm3(STP)/g)
0	0
7.6e-05	13.7662
0.002819	16.1032
0.011502	25.7115
0.038856	35.3152
0.068498	44.6586
0.098822	57.898
0.115613	60.4913
0.134465	61.5257
0.153726	64.8976
0.15565	62.5595
0.176791	63.3336
0.193217	63.8491
0.216646	64.3628
0.217055	66.7004
0.263504	65.3904
0.266247	67.7274
0.315393	68.4946
0.317317	66.1565
0.371176	67.1823
0.371539	69.2602
0.418215	69.2488
0.420231	67.4301
0.471709	68.1968
0.474362	70.0144
0.523144	68.7038
0.523462	70.5219
0.572244	69.2113
0.577275	71.288
0.626011	69.7177
0.626284	71.2761
0.677718	71.783
0.679779	70.2241
0.7265	70.4724
0.729107	72.0302
0.777933	70.9794
0.780586	72.7969
0.829594	72.785
0.831701	71.4858
0.850417	71.741
0.855312	73.0385
0.878741	73.5522
0.880802	71.9933
0.906473	71.987
0.906791	73.8051
0.932235	72.5002
0.937131	73.7978
0.958044	73.2732
0.967651	74.8293
0.981518	74.0467
0.995838	75.8614
1.00989	76.1177
1.01011	77.4163
1.01716	77.6744
1.02206	78.9719
1.03175	81.0474
