Adsorption isotherm of Methane on PKU-17
DOI: 10.1002/anie.201501718
Article source: Figure 4b
Adsorbate Methane: InChIKey VNWKTOKETHGBQD-UHFFFAOYSA-N
Kind: experiment
Temperature: 273 K
Tabular data in the source: 0
pressure (bar)	uptake (mmol/g)
0	0
0.041368	0.001948
0.052854	0.003954
0.071236	0.005946
0.087319	0.007942
0.110282	0.01398
0.112581	0.013975
0.149344	0.017959
0.183809	0.021948
0.199861	0.032053
0.236655	0.027929
0.294052	0.046063
0.30327	0.039964
0.379079	0.051982
0.392857	0.05601
0.482466	0.065975
0.48704	0.072047
0.581232	0.086057
0.61113	0.081947
0.680028	0.098032
0.755846	0.108023
0.781146	0.103921
0.850053	0.117979
0.889131	0.117905
0.94655	0.129958
0.994808	0.13392
