Adsorption isotherm of Ethyl acetate on MIL-101
DOI: 10.1021/Je2004098
Adsorbate Ethyl acetate: InChIKey XEKOWRVHYACXOJ-UHFFFAOYSA-N
Temperature: 288 K
Tabular data in the source: 0
pressure (bar)	uptake (mmol/g)
0.000478589	0.536741
0.000680101	1.20128
0.00108312	2.48882
0.00229219	5.23003
0.00350126	5.97764
0.00471033	6.80831
0.00692695	8.01278
0.00914358	9.42492
0.0135768	10.0064
0.0182116	10.131
0.0224433	10.2556
0.0317128	10.3387
0.0385642	10.4217
0.0454156	10.5048
0.0542821	10.5879
0.0587154	10.5879
0.0633501	10.6294
0.0677834	10.7125
