Adsorption isotherm of Ethyl acetate on MIL-101
DOI: 10.1021/Je2004098
Adsorbate Ethyl acetate: InChIKey XEKOWRVHYACXOJ-UHFFFAOYSA-N
Temperature: 298 K
Tabular data in the source: 0
pressure (bar)	uptake (mmol/g)
0.00128463	2.19808
0.00188917	3.15335
0.0024937	4.23323
0.00410579	5.52077
0.00612091	6.1853
0.00874055	7.14058
0.0127708	8.22045
0.016801	9.30032
0.0248615	9.63259
0.0331234	9.71565
0.0411839	9.88179
0.0579093	10.0479
0.0679849	10.131
