Adsorption isotherm of Ethyl acetate on MIL-101
DOI: 10.1021/Je2004098
Adsorbate Ethyl acetate: InChIKey XEKOWRVHYACXOJ-UHFFFAOYSA-N
Temperature: 298 K
Tabular data in the source: 0
pressure (bar)	uptake (mmol/g)
0.00100575	3.30819
0.00140805	3.74911
0.00221264	4.36625
0.00362069	4.98301
0.00563218	5.64351
0.00704023	6.03968
0.00844828	6.3035
0.0110632	6.87538
0.0144828	7.40264
0.0177011	7.79767
0.0213218	8.23656
0.0235345	8.45576
0.0267529	8.80667
0.0301724	9.11334
0.0333908	9.37601
0.0362069	9.59483
0.0394253	9.81339
0.0428448	10.0318
0.0456609	10.2065
0.0494828	10.4247
0.0527011	10.6433
0.0557184	10.8178
0.0599425	11.0799
0.0641667	11.2096
0.0681897	11.4276
