Adsorption isotherm of Ethyl acetate on MIL-101
DOI: 10.1021/Je2004098
Adsorbate Ethyl acetate: InChIKey XEKOWRVHYACXOJ-UHFFFAOYSA-N
Temperature: 298 K
Tabular data in the source: 0
pressure (bar)	uptake (mmol/g)
0.00044227	1.24731
0.00194991	3.31183
0.00238314	4.04301
0.00302808	4.86022
0.00515053	6.02151
0.00642158	6.58065
0.0072692	6.96774
0.00874746	7.35484
0.0100147	7.69892
0.0135996	8.34409
0.0152851	8.55914
0.0171807	8.77419
0.0190756	8.94624
0.0211808	9.11828
0.0230749	9.24731
0.0258106	9.41935
0.0279143	9.50538
0.0298077	9.5914
0.0319113	9.67742
0.0342243	9.72043
0.0363279	9.80645
0.0382206	9.84946
0.0426365	9.93548
0.0447394	9.97849
0.046632	10.0215
0.0485247	10.0645
0.0506275	10.1075
0.0527296	10.1075
0.0548325	10.1505
0.0569353	10.1935
0.0590374	10.1935
0.0611403	10.2366
0.0632424	10.2366
0.0653452	10.2796
0.0672371	10.2796
