Adsorption isotherm of Ethyl acetate on MIL-101
DOI: 10.1021/Je2004098
Adsorbate Ethyl acetate: InChIKey XEKOWRVHYACXOJ-UHFFFAOYSA-N
Temperature: 288 K
Tabular data in the source: 0
pressure (bar)	uptake (mmol/g)
0.000227539	0.989247
0.000452065	1.80645
0.000675084	2.53763
0.00110831	3.26882
0.00154079	3.95699
0.00197552	4.77419
0.00261972	5.54839
0.00368584	6.4086
0.00453798	7.05376
0.00602226	7.78495
0.00834663	8.47312
0.0117213	9.11828
0.0153024	9.54839
0.0188805	9.80645
0.0220374	10.0215
0.025825	10.2366
0.0294	10.3226
0.0321343	10.4086
0.0361298	10.4946
0.0413865	10.5806
0.0470637	10.6667
0.0527402	10.7097
0.0573663	10.7957
0.0624121	10.8387
0.0645142	10.8387
0.0666163	10.8387
