Adsorption isotherm of Ethyl acetate on MIL-101
DOI: 10.1021/Je2004098
Adsorbate Ethyl acetate: InChIKey XEKOWRVHYACXOJ-UHFFFAOYSA-N
Temperature: 288 K
Tabular data in the source: 0
pressure (bar)	uptake (mmol/g)
0.000603448	2.82315
0.0012069	4.1463
0.00221264	5.02802
0.00422414	5.9091
0.00704023	6.74556
0.0102586	7.4053
0.0136782	7.97667
0.0187069	8.63527
0.0223276	9.03005
0.0265517	9.42444
0.0297701	9.73124
0.0333908	10.0378
0.0374138	10.2558
0.0414368	10.5621
0.0464655	10.8678
0.0512931	11.1294
0.0553161	11.3475
0.0591379	11.5216
0.0631609	11.7396
0.0675862	11.9133
