Adsorption isotherm of Nitrogen on MIL-101
DOI: 10.1021/Je2004098
Adsorbate Nitrogen: InChIKey IJGRMHOSHXDMSA-UHFFFAOYSA-N
Temperature: 77 K
Tabular data in the source: 0
pressure (bar)	uptake (mmol/g)
0.00261865	0.00261865
0.00785596	4.61538
0.0104746	19.8662
0.0314238	24.6823
0.060229	28.2943
0.0785596	29.8997
0.0995088	31.9064
0.112602	33.7124
0.13617	37.5251
0.1545	38.5284
0.180687	39.7324
0.199018	40.3344
0.256628	45.5518
0.322094	45.9532
0.377086	45.9532
0.405891	46.3545
0.442552	46.3545
0.487069	46.5552
0.683468	46.7559
0.767265	46.9565
0.803926	46.7559
0.832731	47.1572
0.89296	47.7592
0.927003	48.1605
0.945333	49.5652
0.953189	50.7692
0.958427	52.7759
0.961045	55.1839
