Adsorption isotherm of Ethyl acetate on MIL-101
DOI: 10.1021/Je2004098
Adsorbate Ethyl acetate: InChIKey XEKOWRVHYACXOJ-UHFFFAOYSA-N
Temperature: 303 K
Tabular data in the source: 0
pressure (bar)	uptake (mmol/g)
0.00168766	2.03195
0.00229219	2.77955
0.00370277	3.85942
0.00612091	5.14696
0.00894207	5.76997
0.0121662	6.60064
0.0182116	7.59744
0.0238539	8.38658
0.0361461	9.42492
0.0478338	9.59105
0.0597229	9.67412
0.0681864	9.79872
