Adsorption isotherm of Ethyl acetate on MIL-101
DOI: 10.1021/Je2004098
Adsorbate Ethyl acetate: InChIKey XEKOWRVHYACXOJ-UHFFFAOYSA-N
Temperature: 308 K
Tabular data in the source: 0
pressure (bar)	uptake (mmol/g)
0.000201149	1.14693
0.000603448	1.67609
0.00241379	3.43966
0.00422414	4.27675
0.00623563	4.84901
0.00824713	5.28892
0.0102586	5.68471
0.0122701	6.0805
0.0154885	6.56377
0.0179023	6.87107
0.0207184	7.22224
0.0237356	7.52916
0.026954	7.83595
0.0301724	8.18687
0.0333908	8.44954
0.0372126	8.80008
0.0418391	9.10598
0.0452586	9.36853
0.0482759	9.5431
0.051092	9.7178
0.0537069	9.89262
0.0567241	10.0672
0.0593391	10.242
0.0617529	10.417
0.0651724	10.5472
0.0681897	10.6776
