Adsorption isotherm of Ethyl acetate on MIL-101
DOI: 10.1021/Je2004098
Adsorbate Ethyl acetate: InChIKey XEKOWRVHYACXOJ-UHFFFAOYSA-N
Temperature: 308 K
Tabular data in the source: 0
pressure (bar)	uptake (mmol/g)
0.00086043	1.11828
0.00150538	1.93548
0.00236656	3.09677
0.00427578	4.08602
0.0051234	4.47312
0.00660844	5.24731
0.00724359	5.50538
0.00809046	5.84946
0.00935699	6.15054
0.0106243	6.49462
0.0125237	6.92473
0.0139997	7.1828
0.0156867	7.48387
0.0184254	7.82796
0.0203211	8.04301
0.0220058	8.21505
0.0249532	8.47312
0.0268474	8.60215
0.028951	8.68817
0.0310554	8.8172
0.0329495	8.94624
0.0348429	9.03226
0.0369465	9.11828
0.0388399	9.2043
0.0409428	9.24731
0.0430464	9.33333
0.044939	9.37634
0.0489345	9.46237
0.0510381	9.54839
0.0529308	9.5914
0.0550336	9.63441
0.0571365	9.67742
0.0609218	9.76344
0.0630239	9.76344
0.0649165	9.80645
