Adsorption isotherm of Methanol on nNiCo
DOI: 10.1016/j.nanoen.2013.02.007
Adsorbate Methanol: InChIKey OKKJLVBELUTLKV-UHFFFAOYSA-N
Temperature: 318 K
Tabular data in the source: 0
pressure (bar)	uptake (wt%)
0.00322788	15.8444
0.00593984	18.3359
0.0105444	19.7584
0.01516	20.8248
0.0207164	21.5347
0.0309159	22.4208
0.0420507	23.1285
0.0624775	24.0105
0.0726824	24.7186
0.0931202	25.2445
0.134001	26.1183
0.166509	27.1735
0.201811	28.0495
0.242687	29.1014
0.273335	30.1573
0.315998	33.523
0.336375	36.0074
0.370571	42.5812
0.420413	54.3119
