Adsorption isotherm of Nitrogen on ZIF-8
DOI: 10.1007/s10450-018-9981-y
Article source: Figure 1c
Adsorbate Nitrogen: InChIKey IJGRMHOSHXDMSA-UHFFFAOYSA-N
Kind: experiment
Temperature: 77 K
Tabular data in the source: 0
pressure (bar)	uptake (cm3(STP)/g)
0.050962	385.635
0.084937	400.221
0.126906	408.729
0.164878	414.807
0.199852	420.884
0.232828	420.884
0.265803	425.746
0.299778	426.961
0.333753	429.392
0.366729	434.254
0.403701	435.47
0.455663	439.116
0.506625	439.116
0.555589	445.193
0.606551	451.271
0.651518	454.917
0.723464	462.21
0.758439	467.072
0.8104	478.011
0.863361	496.243
0.930311	542.431
0.966285	645.746
0.045966	384.42
0.088934	401.436
0.122909	406.298
0.156884	411.16
0.190859	416.022
0.227831	419.669
0.264804	424.53
0.299778	425.746
0.333753	430.608
0.367728	431.823
0.4047	434.254
0.455663	437.901
0.505626	442.762
0.557587	446.409
0.60755	450.055
0.652517	456.133
0.710474	462.21
0.752443	467.072
0.816396	480.442
0.870356	503.536
0.943302	640.884
0.977277	1017.68
1.00326	1097.9
