Adsorption isotherm of Argon on ZSM-5
DOI: 10.1016/j.micromeso.2009.08.009
Adsorbate Argon: InChIKey XKRFYHLGVUSROY-UHFFFAOYSA-N
Temperature: 87 K
Tabular data in the source: 0
pressure (bar)	uptake (cm3(STP)/g)
0.00702701	3.94976
0.0112524	70.4286
0.0422383	78.316
0.10421	86.7667
0.176041	94.0906
0.253506	99.7244
0.329562	105.922
0.426745	113.809
0.505619	121.696
0.578858	129.02
0.654914	139.724
0.730971	149.865
0.830971	165.64
0.881675	178.034
0.926745	197.753
0.95914	216.344
0.968999	231.555
0.980266	251.837
0.9859	269.302
0.992943	298.034
