Adsorption isotherm of Nitrogen on ZSM-5
DOI: 10.1016/j.micromeso.2009.08.009
Adsorbate Nitrogen: InChIKey IJGRMHOSHXDMSA-UHFFFAOYSA-N
Temperature: 77 K
Tabular data in the source: 0
pressure (bar)	uptake (cm3(STP)/g)
0.0236738	87.8631
0.0739259	93.3252
0.132918	98.2412
0.213758	102.611
0.279304	105.342
0.366699	109.166
0.469388	113.535
0.574262	116.266
0.659472	119.544
0.746867	123.367
0.838632	130.468
0.912918	140.846
0.947875	148.493
0.995943	161.603
