Adsorption isotherm of Nitrogen on ZSM-5
DOI: 10.1016/j.micromeso.2009.08.009
Adsorbate Nitrogen: InChIKey IJGRMHOSHXDMSA-UHFFFAOYSA-N
Temperature: 77 K
Tabular data in the source: 0
pressure (bar)	uptake (cm3(STP)/g)
0.0193041	34.8799
0.0761108	41.4345
0.141657	45.258
0.226867	49.6278
0.320817	55.0899
0.427876	61.0984
0.510901	66.0143
0.60922	73.1152
0.720649	82.4009
0.810228	92.2328
0.880144	104.25
0.930396	123.367
0.980649	203.115
0.985018	191.645
0.987203	224.418
