Adsorption isotherm of Nitrogen on ZSM-5
DOI: 10.1016/j.micromeso.2009.08.009
Adsorbate Nitrogen: InChIKey IJGRMHOSHXDMSA-UHFFFAOYSA-N
Temperature: 77 K
Tabular data in the source: 0
pressure (bar)	uptake (cm3(STP)/g)
0.139588	116.11
0.282603	122.117
0.319786	123.404
0.387003	125.978
0.45565	127.265
0.531448	129.411
0.598664	131.556
0.65015	133.272
0.715936	134.13
0.767421	137.562
0.834638	141.853
0.888983	148.288
0.919016	153.866
0.944759	166.737
0.971932	181.754
0.986233	192.051
