Adsorption isotherm of Argon on ZSM-5
DOI: 10.1016/j.micromeso.2009.08.009
Adsorbate Argon: InChIKey XKRFYHLGVUSROY-UHFFFAOYSA-N
Temperature: 87 K
Tabular data in the source: 0
pressure (bar)	uptake (cm3(STP)/g)
0.00561856	4.51314
0.0140693	87.8934
0.0450552	94.0906
0.108435	103.668
0.154914	108.175
0.232379	115.499
0.332379	122.26
0.428154	131.837
0.529562	143.105
0.630971	157.189
0.728154	170.71
0.80421	185.358
0.87745	202.823
0.928154	224.231
0.963365	251.274
0.97745	269.865
0.9859	286.767
0.994351	312.682
