Adsorption isotherm of Argon on ZSM-5
DOI: 10.1016/j.micromeso.2009.08.009
Adsorbate Argon: InChIKey XKRFYHLGVUSROY-UHFFFAOYSA-N
Temperature: 87 K
Tabular data in the source: 0
pressure (bar)	uptake (cm3(STP)/g)
0.00139321	98.5976
0.0239284	116.626
0.0774495	123.386
0.153506	126.203
0.228154	129.02
0.27745	129.584
0.349281	131.274
0.484492	134.654
0.60421	137.471
0.701393	141.978
0.780266	144.231
0.856323	149.865
0.908435	154.936
0.952097	163.386
0.978858	176.908
0.9859	188.175
0.992943	201.133
