Adsorption isotherm of Nitrogen on ZSM-5
DOI: 10.1016/j.micromeso.2009.08.009
Adsorbate Nitrogen: InChIKey IJGRMHOSHXDMSA-UHFFFAOYSA-N
Temperature: 77 K
Tabular data in the source: 0
pressure (bar)	uptake (cm3(STP)/g)
0.0236738	102.611
0.0586318	107.527
0.102329	112.989
0.18317	118.451
0.246531	121.182
0.323002	123.913
0.397287	126.645
0.462833	127.191
0.569892	129.376
0.685691	133.199
0.805859	138.661
0.867035	143.577
0.928212	151.771
0.95443	165.972
0.982834	180.72
