Adsorption isotherm of Nitrogen on ZSM-5
DOI: 10.1016/j.micromeso.2009.08.009
Adsorbate Nitrogen: InChIKey IJGRMHOSHXDMSA-UHFFFAOYSA-N
Temperature: 77 K
Tabular data in the source: 0
pressure (bar)	uptake (cm3(STP)/g)
0.0236738	10.8462
0.108884	11.9387
0.207203	14.1236
0.290228	15.216
0.403842	15.216
0.508716	18.4933
0.600481	20.6782
0.69443	22.8631
0.781825	27.2328
0.845186	32.1488
0.906363	40.342
0.934766	46.8967
0.956615	58.9135
0.987203	120.09
0.989388	95.5101
