Adsorption isotherm of Argon on ZSM-5
DOI: 10.1016/j.micromeso.2009.08.009
Adsorbate Argon: InChIKey XKRFYHLGVUSROY-UHFFFAOYSA-N
Temperature: 87 K
Tabular data in the source: 0
pressure (bar)	uptake (cm3(STP)/g)
0.00561856	91.2737
0.00702701	2.25962
0.0253369	108.175
0.0619566	121.133
0.111252	127.33
0.20421	136.344
0.299985	146.485
0.401393	156.626
0.525337	167.893
0.653506	184.231
0.728154	198.316
0.80421	217.471
0.880266	251.274
0.930971	283.386
0.960548	307.048
0.97745	323.95
0.984492	344.795
0.992943	372.964
