Adsorption isotherm of Nitrogen on ZSM-5
DOI: 10.1016/j.micromeso.2009.08.009
Adsorbate Nitrogen: InChIKey IJGRMHOSHXDMSA-UHFFFAOYSA-N
Temperature: 77 K
Tabular data in the source: 0
pressure (bar)	uptake (cm3(STP)/g)
0.0193041	36.6121
0.0870352	42.5113
0.17006	48.4105
0.253086	52.9987
0.34485	58.2424
0.465018	66.1079
0.563338	71.3516
0.661657	78.5617
0.746867	86.4273
0.834262	98.881
0.895439	111.99
0.921657	125.755
0.952245	146.074
0.976279	205.721
0.980649	193.268
0.982834	227.352
