Adsorption isotherm of Nitrogen on ZSM-5
DOI: 10.1016/j.micromeso.2009.08.009
Adsorbate Nitrogen: InChIKey IJGRMHOSHXDMSA-UHFFFAOYSA-N
Temperature: 77 K
Tabular data in the source: 0
pressure (bar)	uptake (cm3(STP)/g)
0.0258587	94.9483
0.0739259	104.78
0.141657	115.268
0.237791	123.133
0.318632	128.377
0.395102	134.276
0.462833	138.864
0.534934	144.763
0.628884	153.94
0.716279	161.805
0.805859	171.637
0.867035	180.814
0.921657	195.234
0.952245	209.654
0.974094	240.461
0.982834	250.948
