Adsorption isotherm of Nitrogen on ZSM-5
DOI: 10.1016/j.micromeso.2009.08.009
Adsorbate Nitrogen: InChIKey IJGRMHOSHXDMSA-UHFFFAOYSA-N
Temperature: 77 K
Tabular data in the source: 0
pressure (bar)	uptake (cm3(STP)/g)
0.0895335	111.82
0.141019	114.394
0.192504	117.826
0.25257	119.972
0.311206	121.688
0.368411	123.833
0.404165	124.262
0.467091	124.691
0.538598	125.978
0.594374	127.694
0.65587	129.84
0.720227	130.698
0.771712	134.13
0.831778	137.991
0.886123	141.424
0.916156	147.001
0.974792	174.031
0.981943	185.186
