Adsorption isotherm of Nitrogen on ZSM-5
DOI: 10.1016/j.micromeso.2009.08.009
Adsorbate Nitrogen: InChIKey IJGRMHOSHXDMSA-UHFFFAOYSA-N
Temperature: 77 K
Tabular data in the source: 0
pressure (bar)	uptake (cm3(STP)/g)
0.0171192	102.158
0.0717411	113.957
0.130733	122.478
0.226867	134.276
0.316447	140.831
0.399472	148.696
0.508716	158.528
0.598296	168.36
0.69006	178.192
0.773086	189.99
0.836447	200.478
0.893254	213.587
0.947875	239.805
0.980649	282.41
