Adsorption isotherm of Carbon Dioxide on [Mn3(mu5-mTPO)(mu6-mTPO)(mu-H2O)(H2O)4]*2DMF*H2O
DOI: 10.1039/C3cc00093a
Adsorbate Carbon Dioxide: InChIKey CURLTUGMZLYLDI-UHFFFAOYSA-N
Temperature: 195 K
Tabular data in the source: 0
pressure (bar)	uptake (cm3(STP)/g)
0.00515504	5.79222
0.00801532	10.7119
0.00801532	18.9495
0.00801532	27.5304
0.0180263	35.0815
0.0280373	40.5733
0.0466292	45.7218
0.075232	50.4127
0.120997	54.3027
0.178202	57.735
0.25686	60.4809
0.35411	62.7691
0.45851	64.4853
0.55576	65.7438
0.65587	67.0023
0.75741	67.9176
0.85895	68.7185
0.9562	69.405
0.983373	69.7482
