Adsorption isotherm of Nitrogen on [Mn3(mu5-mTPO)(mu6-mTPO)(mu-H2O)(H2O)4]*2DMF*H2O
DOI: 10.1039/C3cc00093a
Adsorbate Nitrogen: InChIKey IJGRMHOSHXDMSA-UHFFFAOYSA-N
Temperature: 273 K
Tabular data in the source: 0
pressure (bar)	uptake (cm3(STP)/g)
0.339575	1.19628
0.450173	1.19628
0.54933	1.50138
0.604629	1.57765
0.648486	1.57765
0.703785	1.34883
0.754317	1.50138
0.813429	1.7302
0.85824	1.57765
0.904005	1.7302
0.960257	1.88275
0.986953	1.88275
