Adsorption isotherm of Methane on [Mn3(mu5-mTPO)(mu6-mTPO)(mu-H2O)(H2O)4]*2DMF*H2O
DOI: 10.1039/C3cc00093a
Adsorbate Methane: InChIKey VNWKTOKETHGBQD-UHFFFAOYSA-N
Temperature: 298 K
Tabular data in the source: 0
pressure (bar)	uptake (cm3(STP)/g)
0.00944547	0.529291
0.0895335	1.33017
0.161041	1.78782
0.238268	2.13105
0.311206	2.35987
0.391294	2.47429
0.462801	2.70311
0.540029	2.81752
0.612966	2.93193
0.687333	3.16075
0.786013	3.38958
0.961921	3.16075
