Adsorption isotherm of Hydrogen on [Mn3(mu5-mTPO)(mu6-mTPO)(mu-H2O)(H2O)4]*2DMF*H2O
DOI: 10.1039/C3cc00093a
Adsorbate Hydrogen: InChIKey UFHFLCQGNIYNRP-UHFFFAOYSA-N
Temperature: 273 K
Tabular data in the source: 0
pressure (bar)	uptake (cm3(STP)/g)
0.104078	0.891181
0.333855	1.04373
0.375806	0.967456
0.451126	1.04373
0.526447	1.12
0.576979	1.12
0.629418	1.04373
0.678042	0.967456
0.725714	1.04373
0.776246	0.967456
0.830591	1.04373
0.880169	0.967456
0.928794	0.967456
0.978373	1.04373
