Adsorption isotherm of Carbon Dioxide on [Mn3(mu5-mTPO)(mu6-mTPO)(mu-H2O)(H2O)4]*2DMF*H2O
DOI: 10.1039/C3cc00093a
Adsorbate Carbon Dioxide: InChIKey CURLTUGMZLYLDI-UHFFFAOYSA-N
Temperature: 298 K
Tabular data in the source: 0
pressure (bar)	uptake (cm3(STP)/g)
0.025177	2.47429
0.0995445	5.90663
0.15389	7.96603
0.206805	9.79662
0.279743	11.9704
0.3584	14.1443
0.45422	16.0892
0.55576	18.1487
0.65587	19.7504
0.75741	20.8945
0.863241	22.1531
0.907575	22.8395
0.984803	23.6404
