Adsorption isotherm of Methane on [Mn3(mu5-mTPO)(mu6-mTPO)(mu-H2O)(H2O)4]*2DMF*H2O
DOI: 10.1039/C3cc00093a
Adsorbate Methane: InChIKey VNWKTOKETHGBQD-UHFFFAOYSA-N
Temperature: 273 K
Tabular data in the source: 0
pressure (bar)	uptake (cm3(STP)/g)
0.127914	1.04373
0.177492	1.12
0.228978	1.12
0.28237	1.27255
0.353877	1.4251
0.411082	1.50138
0.455894	1.65392
0.504518	1.80647
0.607489	1.95902
0.702832	2.26412
0.857287	2.34039
0.965025	2.72176
