Adsorption isotherm of Carbon Dioxide on [Mn3(mu5-mTPO)(mu6-mTPO)(mu-H2O)(H2O)4]*2DMF*H2O
DOI: 10.1039/C3cc00093a
Adsorbate Carbon Dioxide: InChIKey CURLTUGMZLYLDI-UHFFFAOYSA-N
Temperature: 273 K
Tabular data in the source: 0
pressure (bar)	uptake (cm3(STP)/g)
0.0223168	4.30487
0.100975	11.0551
0.15103	14.0298
0.201085	16.5469
0.25114	18.4919
0.302625	20.4369
0.404165	23.0683
0.501415	25.3566
0.602955	27.1872
0.704495	28.5601
0.810326	29.933
0.85895	30.3907
0.910436	30.9627
0.986233	31.878
