Adsorption isotherm of Oxygen on Zeolite CaX
DOI: 10.1021/la971082g
Article source: Figure 5
Adsorbate Oxygen: InChIKey MYMOFIZGZYHOMD-UHFFFAOYSA-N
Kind: experiment
Temperature: 303 K
Tabular data in the source: 0
pressure (bar)	uptake (mmol/g)
0.1304	27.2
0.1901	32.31
0.2594	50.03
0.3196	65.56
