Adsorption isotherm of Nitrogen on Zeolite CaX
DOI: 10.1021/la971082g
Article source: Figure 4
Adsorbate Nitrogen: InChIKey IJGRMHOSHXDMSA-UHFFFAOYSA-N
Kind: experiment
Temperature: 303 K
Tabular data in the source: 0
pressure (bar)	uptake (mmol/g)
0.06025	193.7
0.0803	220.9
0.1001	245.1
0.1306	327.5
0.1892	396.1
0.259	456.7
0.3191	510
