Adsorption isotherm of Nitrogen, Oxygen on Zeolite CaX
DOI: 10.1021/la971082g
Article source: Table 5 and Fig 7
Adsorbate Nitrogen: InChIKey IJGRMHOSHXDMSA-UHFFFAOYSA-N
Adsorbate Oxygen: InChIKey MYMOFIZGZYHOMD-UHFFFAOYSA-N
Kind: experiment
Temperature: 303 K
Tabular data in the source: 0
pressure (bar)	Nitrogen fraction	Nitrogen uptake (mmol/g)	Oxygen fraction	Oxygen uptake (mmol/g)	total uptake (mmol/g)
0.26	0.5	19	0.5	335	
0.39	0.333333	32	0.666667	335	
0.52	0.25	72	0.75	321	
0.65	0.2	106	0.8	305	
