Adsorption isotherm of Carbon Dioxide on UTSA-15
DOI: 10.1021/Ic102347b
Adsorbate Carbon Dioxide: InChIKey CURLTUGMZLYLDI-UHFFFAOYSA-N
Temperature: 296 K
Tabular data in the source: 0
pressure (bar)	uptake (cm3(STP)/g)
0.00656653	0.774055
0.0644657	5.2312
0.124681	8.81439
0.191844	11.6984
0.282167	14.932
0.407229	18.4278
0.529975	21.2245
0.62493	23.322
0.749992	25.8564
0.844946	27.6043
0.963061	30.0514
1.05802	31.7993
