Adsorption isotherm of Carbon Dioxide on UTSA-15
DOI: 10.1021/Ic102347b
Adsorbate Carbon Dioxide: InChIKey CURLTUGMZLYLDI-UHFFFAOYSA-N
Temperature: 196 K
Tabular data in the source: 0
pressure (bar)	uptake (cm3(STP)/g)
0.0111985	27.8103
0.0135144	41.575
0.0158304	52.7178
0.0250943	76.3145
0.0366741	98.6002
0.0760455	115.97
0.14784	124.819
0.221951	130.718
0.319222	136.617
0.441968	142.516
0.532291	145.138
0.62493	148.088
0.719884	149.726
0.810207	151.037
0.905161	152.02
0.9978	152.02
