Adsorption isotherm of Acetylene on UTSA-15
DOI: 10.1021/Ic102347b
Adsorbate Acetylene: InChIKey HSFWRNGVRCDJHI-UHFFFAOYSA-N
Temperature: 296 K
Tabular data in the source: 0
pressure (bar)	uptake (cm3(STP)/g)
0.00425056	1.99758
0.0204623	3.65809
0.0343581	5.75557
0.0667817	20.3505
0.103837	23.5841
0.177948	26.9051
0.249743	28.9152
0.344698	30.5757
0.437336	31.9741
0.564714	33.0228
0.687461	33.6346
0.810207	34.0715
0.902846	34.2463
0.993168	34.4211
1.05338	34.3337
