Adsorption isotherm of Methane on UTSA-15
DOI: 10.1021/Ic102347b
Adsorbate Methane: InChIKey VNWKTOKETHGBQD-UHFFFAOYSA-N
Temperature: 296 K
Tabular data in the source: 0
pressure (bar)	uptake (cm3(STP)/g)
0.0274102	0.249685
0.0992052	0.424475
0.15942	0.68666
0.252059	1.12364
0.347014	1.38582
0.404913	1.56061
0.502183	1.82279
0.564714	1.91019
0.687461	2.25977
0.780099	2.60935
0.870422	2.87153
0.956113	3.04632
1.02328	3.22111
1.07886	3.4833
