Adsorption isotherm of N-propane, Ethane on MSC-5A
DOI: 10.1021/je00024a020
Article source: Table I
Adsorbate N-propane: InChIKey ATUOYWHBWRKTHZ-UHFFFAOYSA-N
Adsorbate Ethane: InChIKey OTMSDBZUPAUEDD-UHFFFAOYSA-N
Kind: experiment
Temperature: 278 K
Tabular data in the source: 0
pressure (bar)	N-propane fraction	N-propane uptake (mmol/g)	Ethane fraction	Ethane uptake (mmol/g)	total uptake (mmol/g)
0.135989	1	1.99	0	0	
0.133856	0.796	1.89	0.204	0.128	
0.131856	0.637	1.853	0.363	0.186	
0.132656	0.505	1.816	0.495	0.242	
0.132522	0.334	1.673	0.666	0.352	
0.133056	0.185	1.485	0.815	0.542	
0.132389	0.074	1.129	0.926	0.838	
0.131856	0	0	1	2.622	
