Adsorption isotherm of N-propane, Ethane on MSC-5A
DOI: 10.1021/je00024a020
Article source: Table I
Adsorbate N-propane: InChIKey ATUOYWHBWRKTHZ-UHFFFAOYSA-N
Adsorbate Ethane: InChIKey OTMSDBZUPAUEDD-UHFFFAOYSA-N
Kind: experiment
Temperature: 323 K
Tabular data in the source: 0
pressure (bar)	N-propane fraction	N-propane uptake (mmol/g)	Ethane fraction	Ethane uptake (mmol/g)	total uptake (mmol/g)
0.133322	1	1.558	0	0	
0.135456	0.768	1.454	0.232	0.09	
0.136789	0.629	1.397	0.371	0.179	
0.133056	0.48	1.305	0.52	0.186	
0.134656	0.32	1.188	0.68	0.214	
0.135322	0.193	1.012	0.807	0.354	
0.134256	0.097	0.722	0.903	0.528	
0.136655	0.051	0.533	0.949	0.705	
0.133322	0	0	1	1.141	
