Adsorption isotherm of N-propane, Ethane on MSC-5A
DOI: 10.1021/je00024a020
Article source: Table I
Adsorbate N-propane: InChIKey ATUOYWHBWRKTHZ-UHFFFAOYSA-N
Adsorbate Ethane: InChIKey OTMSDBZUPAUEDD-UHFFFAOYSA-N
Kind: experiment
Temperature: 303 K
Tabular data in the source: 0
pressure (bar)	N-propane fraction	N-propane uptake (mmol/g)	Ethane fraction	Ethane uptake (mmol/g)	total uptake (mmol/g)
0.134522	1	1.741	0	0	
0.131856	0.899	1.61	0.101	0.094	
0.133856	0.832	1.695	0.168	0.057	
0.132656	0.675	1.623	0.325	0.142	
0.132389	0.285	1.367	0.715	0.314	
0.133322	0.177	1.188	0.823	0.468	
0.128789	0.09	0.746	0.91	0.734	
0.135189	0.053	0.71	0.947	0.766	
0.134789	0.048	0.467	0.952	1.036	
0.133856	0	0	1	1.457	
0.399967	1	1.859	0	0	
0.4025	0.474	1.605	0.526	0.258	
0.404767	0.224	1.341	0.776	0.494	
0.4005	0.116	1.021	0.884	0.829	
0.4013	0	0	1	1.929	
