Adsorption isotherm of Nitrogen on C10H11FeN3O7
DOI: 10.1021/Cg801321e
Adsorbate Nitrogen: InChIKey IJGRMHOSHXDMSA-UHFFFAOYSA-N
Temperature: 77 K
Tabular data in the source: 0
pressure (bar)	uptake (ml/g)
0.0454217	1.7272
0.196827	2.52959
0.247296	2.68894
0.292718	2.95669
0.338139	3.11632
0.388608	3.32973
0.436553	3.54328
0.484498	3.81088
0.582912	4.34595
0.678802	4.98926
0.772169	5.95704
0.873106	7.84331
0.918528	10.1651
0.941239	12.3801
0.956379	15.2441
