Adsorption isotherm of Nitrogen on [Zn(L) H2O] DMA
DOI: 10.1039/C4cc00334a
Adsorbate Nitrogen: InChIKey IJGRMHOSHXDMSA-UHFFFAOYSA-N
Temperature: 195 K
Tabular data in the source: 0
pressure (bar)	uptake (wt%)
0.608623	0.259688
0.882727	0.700172
1.04847	0.985176
2.06097	1.38778
4.11619	1.88235
6.21681	2.31225
8.15008	2.43126
10.1351	2.58917
11.2472	3.00485
12.2963	3.20038
13.2459	3.38284
14.2344	3.39707
15.2253	3.45013
16.2656	3.50326
17.157	3.54325
18.3041	3.72596
19.1906	3.68827
