Adsorption isotherm of Nitrogen on [Zn(L) H2O] DMA
DOI: 10.1039/C4cc00334a
Adsorbate Nitrogen: InChIKey IJGRMHOSHXDMSA-UHFFFAOYSA-N
Temperature: 273 K
Tabular data in the source: 0
pressure (bar)	uptake (wt%)
0.251728	0.0779958
11.1393	1.25714
13.1236	1.4021
15.158	1.56008
17.1431	1.71798
19.1759	1.85007
