Adsorption isotherm of Carbon Dioxide on [Zn(L) H2O] DMA
DOI: 10.1039/C4cc00334a
Adsorbate Carbon Dioxide: InChIKey CURLTUGMZLYLDI-UHFFFAOYSA-N
Temperature: 273 K
Tabular data in the source: 0
pressure (bar)	uptake (wt%)
-0.13256	1.50524
0.212961	1.94881
0.2243	2.43592
0.521167	3.18935
0.64012	3.49957
0.925649	3.76589
1.15634	4.07636
2.07292	5.05256
3.09196	5.63046
4.16583	6.1642
5.12591	6.60913
6.19463	6.92146
7.21058	7.36652
8.2793	7.67885
9.23526	7.94665
10.2471	8.21457
11.262	8.61534
12.218	8.88314
13.2856	9.15119
14.2426	9.46327
15.2545	9.73119
16.2683	10.0877
17.3919	10.3558
18.4037	10.6238
19.4166	10.936
20.4843	11.204
