Adsorption isotherm of Methane on [Zn(L) H2O] DMA
DOI: 10.1039/C4cc00334a
Adsorbate Methane: InChIKey VNWKTOKETHGBQD-UHFFFAOYSA-N
Temperature: 273 K
Tabular data in the source: 0
pressure (bar)	uptake (wt%)
0.0185963	0.0221938
0.0652254	0.0183196
0.114131	0.0379951
0.228316	0.0522467
0.438009	0.0941714
0.601045	0.151842
0.841129	0.155633
1.02978	0.223045
