Adsorption isotherm of Carbon Dioxide on [Zn(L) H2O] DMA
DOI: 10.1039/C4cc00334a
Adsorbate Carbon Dioxide: InChIKey CURLTUGMZLYLDI-UHFFFAOYSA-N
Temperature: 313 K
Tabular data in the source: 0
pressure (bar)	uptake (wt%)
0.0103079	0.442827
0.019585	0.841372
0.0538072	-0.0884418
0.368198	1.41779
0.655788	1.77267
0.828549	1.99445
1.05512	2.1278
1.96654	2.88258
4.0543	3.77281
6.08001	4.39723
8.10469	4.97735
10.1832	5.46904
11.194	5.69268
12.2617	5.96073
13.2724	6.18437
14.3391	6.40813
16.3038	6.811
17.3156	7.07893
18.3264	7.30257
19.2803	7.4818
20.2911	7.70544
