Adsorption isotherm of Carbon Dioxide on [Zn(L) H2O] DMA
DOI: 10.1039/C4cc00334a
Adsorbate Carbon Dioxide: InChIKey CURLTUGMZLYLDI-UHFFFAOYSA-N
Temperature: 273 K
Tabular data in the source: 0
pressure (bar)	uptake (wt%)
0.0144938	0.782179
0.0547719	1.50287
0.109758	1.91373
0.215815	2.4153
0.428953	2.9792
0.623854	3.36656
0.791082	3.62567
1.02584	3.91477
