Adsorption isotherm of Carbon Dioxide on [Zn(L) H2O] DMA
DOI: 10.1039/C4cc00334a
Adsorbate Carbon Dioxide: InChIKey CURLTUGMZLYLDI-UHFFFAOYSA-N
Temperature: 293 K
Tabular data in the source: 0
pressure (bar)	uptake (wt%)
0.257491	1.46182
0.494367	2.03799
0.726088	2.39275
0.898849	2.61454
1.06955	2.74776
2.15064	3.59148
3.11278	4.12497
4.18666	4.65872
5.20157	5.05949
6.21649	5.46026
7.22934	5.77246
8.24323	6.12895
9.36885	6.48569
10.2141	6.79752
11.2818	7.06557
12.2367	7.28908
13.2485	7.55701
14.2024	7.73624
15.2701	8.00429
16.3378	8.27233
17.2938	8.54013
18.3056	8.80806
19.3733	9.0761
