Adsorption isotherm of Nitrogen on SCF82
DOI: 10.1007/s10450-017-9922-1
Article source: Figure 4
Adsorbate Nitrogen: InChIKey IJGRMHOSHXDMSA-UHFFFAOYSA-N
Kind: experiment
Temperature: 673 K
Tabular data in the source: 0
pressure (bar)	uptake (mmol/g)
0.033898	0.000625
2.00848	0.00125
4	-0.000625
5.01695	-0.000625
7.00847	0.00125
9.01695	0.001875
10.0424	0.0025
