Adsorption isotherm of Oxygen on SCF82
DOI: 10.1007/s10450-017-9922-1
Article source: Figure 4
Adsorbate Oxygen: InChIKey MYMOFIZGZYHOMD-UHFFFAOYSA-N
Kind: experiment
Temperature: 773 K
Tabular data in the source: 0
pressure (bar)	uptake (mmol/g)
0	0.00125
0.050847	0.05875
0.050847	0.113125
0.110169	0.209375
0.245763	0.275625
0.372881	0.30125
0.559322	0.316875
0.745763	0.331875
1.22034	0.355625
1.87288	0.375
3.79661	0.405625
5.88983	0.4225
7.91525	0.43375
9.82203	0.439375
10.0339	0.440625
