Adsorption isotherm of Oxygen on SCF82
DOI: 10.1007/s10450-017-9922-1
Article source: Figure 4
Adsorbate Oxygen: InChIKey MYMOFIZGZYHOMD-UHFFFAOYSA-N
Kind: experiment
Temperature: 673 K
Tabular data in the source: 0
pressure (bar)	uptake (mmol/g)
0	0.004375
0	0.069375
0	0.203125
0.09322	0.31875
0.177966	0.410625
0.288136	0.43375
0.330508	0.4475
0.754237	0.48375
1.22881	0.509375
1.83898	0.53
3.78814	0.56125
5.83898	0.58125
7.88983	0.5925
9.84746	0.601875
10.0593	0.605
