Adsorption isotherm of Argon on SCF82
DOI: 10.1007/s10450-017-9922-1
Article source: Figure 4
Adsorbate Argon: InChIKey XKRFYHLGVUSROY-UHFFFAOYSA-N
Kind: experiment
Temperature: 673 K
Tabular data in the source: 0
pressure (bar)	uptake (mmol/g)
0	0
1.94915	0.000625
3.77966	0.000625
5.21186	0.000625
6.92373	0.001875
8.61864	0.001875
9.94068	0.00125
