Adsorption isotherm of Oxygen on SCF82
DOI: 10.1007/s10450-017-9922-1
Article source: Figure 4
Adsorbate Oxygen: InChIKey MYMOFIZGZYHOMD-UHFFFAOYSA-N
Kind: experiment
Temperature: 873 K
Tabular data in the source: 0
pressure (bar)	uptake (mmol/g)
0.008475	0.00375
0.042373	0.074375
0.110169	0.1425
0.127119	0.1775
0.20339	0.205625
0.305085	0.225
0.355932	0.2325
0.762712	0.271875
0.957627	0.283125
1.83898	0.31625
3.79661	0.351875
5.87288	0.374375
7.85593	0.390625
9.81356	0.399375
10.0763	0.404375
