Adsorption isotherm of Hydrogen on C11H12GdO11
DOI: 10.1007/s11426-011-4356-1
Adsorbate Hydrogen: InChIKey UFHFLCQGNIYNRP-UHFFFAOYSA-N
Temperature: 77 K
Tabular data in the source: 0
pressure (bar)	uptake (cm3(STP)/g)
0.00814946	9.16667
0.010866	21.6667
0.0271649	27.5
0.0434638	35.8333
0.0760617	39.1667
0.10866	43.3333
0.141257	46.6667
0.160273	47.5
0.187438	50
0.239051	51.6667
0.263499	54.1667
0.296097	57.5
0.328695	57.5
0.369442	59.1667
0.415623	60.8333
0.459086	63.3333
0.491684	64.1667
0.524282	65.8333
0.567746	67.5
0.624792	67.5
0.651957	70.8333
0.698137	74.1667
0.752467	75.8333
0.779632	75.8333
0.839395	78.3333
0.896441	79.1667
0.948054	83.3333
0.983369	84.1667
1.01053	85.8333
