Adsorption isotherm of Nitrogen on C11H12GdO11
DOI: 10.1007/s11426-011-4356-1
Adsorbate Nitrogen: InChIKey IJGRMHOSHXDMSA-UHFFFAOYSA-N
Temperature: 77 K
Tabular data in the source: 0
pressure (bar)	uptake (cm3(STP)/g)
0.00271649	0.00271649
0.00543298	92.5
0.00814946	80.8333
0.0244484	97.5
0.0624792	105.833
0.105943	111.667
0.152123	117.5
0.214603	123.333
0.271649	129.167
0.315113	134.167
0.369442	139.167
0.412906	145.833
0.483535	152.5
0.513416	156.667
0.546014	159.167
0.624792	167.5
0.709003	175.833
0.752467	179.167
0.81223	185.833
0.871993	192.5
0.931755	200
0.972503	207.5
1.00782	220.833
