Adsorption isotherm of Carbon Dioxide on C11H12GdO11
DOI: 10.1007/s11426-011-4356-1
Adsorbate Carbon Dioxide: InChIKey CURLTUGMZLYLDI-UHFFFAOYSA-N
Temperature: 273 K
Tabular data in the source: 0
pressure (bar)	uptake (cm3(STP)/g)
0.00773473	0.918525
0.0180477	3.66828
0.0515649	6.42851
0.0747691	8.72657
0.100552	10.1108
0.126334	12.41
0.149538	14.708
0.172742	16.5486
0.198525	18.6191
0.224307	20.4608
0.252668	22.5324
0.275872	24.3729
0.306811	26.217
0.332594	27.8299
0.353219	29.2118
0.379002	30.8247
0.407363	32.4388
0.430567	33.5931
0.458927	35.436
0.489866	36.5937
0.510492	37.7468
0.538853	38.9034
0.564635	40.0589
0.600731	41.6765
0.63167	42.8342
0.660031	43.9908
0.685813	44.9175
0.709017	46.3005
0.745113	47.0031
0.770895	48.3873
0.812147	49.321
0.853399	50.4834
0.897229	52.1045
0.933324	53.4933
0.966842	54.4235
0.982311	54.888
1.00809	55.8147
