Adsorption isotherm of Hydrogen on [{Fe2NiO(Piv)6}8{L2}]n
DOI: 10.1002/chem.201103688
Adsorbate Hydrogen: InChIKey UFHFLCQGNIYNRP-UHFFFAOYSA-N
Temperature: 78 K
Tabular data in the source: 0
pressure (bar)	uptake (cm3(STP)/g)
0.0160141	5.48303
0.0343579	6.26632
0.0526717	10.9661
0.0847658	13.3159
0.109979	15.6658
0.144372	17.2324
0.222335	20.3655
0.295716	22.7154
0.375978	25.0653
0.447071	26.6319
0.52047	26.6319
0.593857	28.1984
0.676431	28.1984
0.749818	29.765
0.788811	29.765
0.81863	29.765
0.894317	30.5483
0.965416	31.3316
0.979178	31.3316
1.04341	29.765
1.05258	31.3316
1.13744	31.3316
