Adsorption isotherm of Hydrogen on [Fe2NiO(Piv)6(L1)]n
DOI: 10.1002/chem.201103688
Adsorbate Hydrogen: InChIKey UFHFLCQGNIYNRP-UHFFFAOYSA-N
Temperature: 78 K
Tabular data in the source: 0
pressure (bar)	uptake (cm3(STP)/g)
0.0434848	12.5326
0.0732433	20.3655
0.0892813	22.7154
0.121316	32.8982
0.139641	36.0313
0.157967	39.1645
0.171705	42.2977
0.194619	45.4308
0.228977	51.6971
0.256477	54.8303
0.283966	59.53
0.322935	62.6632
0.355017	66.5796
0.382524	68.9295
0.400862	70.4961
0.442125	73.6292
0.455875	75.1958
0.506313	78.329
0.533825	79.8956
0.56592	82.2454
0.600313	83.812
0.641582	86.1619
0.67367	89.295
0.724132	89.295
0.74017	91.6449
0.808964	93.9948
0.822726	93.9948
0.882351	95.5614
0.937388	97.1279
0.951144	97.9112
1.0016	98.6945
1.01994	99.4778
1.07269	101.044
1.14608	101.828
