Adsorption isotherm of Nitrogen on [Fe2NiO(Piv)6(L1)]n
DOI: 10.1002/chem.201103688
Adsorbate Nitrogen: InChIKey IJGRMHOSHXDMSA-UHFFFAOYSA-N
Temperature: 78 K
Tabular data in the source: 0
pressure (bar)	uptake (cm3(STP)/g)
0.00586306	133.159
0.0060547	108.094
0.0103487	146.475
0.0194577	155.091
0.0377176	166.841
0.0583131	173.107
0.0812084	178.59
0.106415	181.723
0.120154	184.856
0.152254	186.423
0.20268	191.123
0.257717	192.689
0.305855	196.606
0.36318	198.956
0.42511	198.956
0.475554	201.305
0.528304	202.089
0.583347	202.872
0.633809	202.872
0.693428	205.222
0.743889	205.222
0.798927	206.789
0.853988	205.222
0.909025	206.789
0.964062	208.355
1.00073	212.272
1.00725	260.052
1.00744	234.987
1.00932	289.034
1.00952	263.185
