Adsorption isotherm of Nitrogen on [{Fe2NiO(Piv)6}8{L2}]n
DOI: 10.1002/chem.201103688
Adsorbate Nitrogen: InChIKey IJGRMHOSHXDMSA-UHFFFAOYSA-N
Temperature: 78 K
Tabular data in the source: 0
pressure (bar)	uptake (cm3(STP)/g)
0.0435208	7.8329
0.0687517	7.8329
0.0893951	7.8329
0.112326	8.61619
0.139857	7.8329
0.185731	7.8329
0.224724	7.8329
0.268293	9.39948
0.316461	9.39948
0.360036	10.1828
0.401329	9.39948
0.447203	9.39948
0.497665	9.39948
0.536658	9.39948
0.582533	9.39948
0.626113	9.39948
0.6674	9.39948
0.717856	10.1828
0.754561	9.39948
0.814198	9.39948
0.853185	10.1828
0.899066	9.39948
0.951815	10.1828
0.988497	12.5326
1.02057	17.2324
1.02698	79.1123
1.02721	48.564
1.02934	70.4961
1.02964	31.3316
