Adsorption isotherm of Carbon Dioxide on Anthracite
DOI: 10.1016/j.micromeso.2005.10.031
Article source: Figure 5a
Adsorbate Carbon Dioxide: InChIKey CURLTUGMZLYLDI-UHFFFAOYSA-N
Kind: experiment
Temperature: 298 K
Tabular data in the source: 0
pressure (bar)	uptake (mg/g)
0	0.094191
0.019629	1.78964
0.038217	3.24961
0.058858	4.52119
0.079494	5.65149
0.100125	6.6405
0.119723	7.53532
0.13932	8.38305
0.159945	9.18367
0.178503	9.79592
0.199125	10.5024
0.219741	11.0675
0.24036	11.6797
0.258915	12.1978
0.27953	12.7159
0.300145	13.2339
0.320759	13.7049
0.339311	14.1287
0.359924	14.5997
0.380538	15.0706
0.39909	15.4945
0.4197	15.8713
0.440312	16.2951
0.460922	16.6719
0.480501	17.0016
0.500078	17.2841
0.520687	17.6138
0.540264	17.8964
0.559845	18.2732
0.580452	18.5557
0.601059	18.8383
0.619606	19.1209
0.64021	19.3093
0.660818	19.6389
0.680394	19.8744
0.699969	20.1099
0.720575	20.3454
0.74118	20.5808
0.759726	20.8163
0.780331	21.0518
0.800935	21.2402
0.821541	21.4757
0.840086	21.7111
0.860692	21.9466
0.881297	22.1821
0.900869	22.3234
0.920442	22.4647
0.941042	22.5589
0.961643	22.6531
