Adsorption isotherm of Carbon Dioxide on Lignite
DOI: 10.1016/j.micromeso.2005.10.031
Article source: Figure 5c
Adsorbate Carbon Dioxide: InChIKey CURLTUGMZLYLDI-UHFFFAOYSA-N
Kind: experiment
Temperature: 298 K
Tabular data in the source: 0
pressure (bar)	uptake (mg/g)
0	1.24806
0.020471	3.47287
0.039918	5.26357
0.059365	6.89147
0.079836	8.30233
0.100307	9.60465
0.120778	10.7442
0.140225	11.7752
0.160696	12.6977
0.17912	13.5116
0.199591	14.2713
0.220061	14.9767
0.240532	15.5194
0.25998	16.1705
0.279427	16.7132
0.299898	17.2016
0.320368	17.6899
0.339816	18.124
0.360287	18.6124
0.379734	19.0465
0.399181	19.4264
0.419652	19.9147
0.440123	20.2946
0.460594	20.7287
0.481064	21.1085
0.500512	21.5426
0.519959	21.9225
0.539406	22.3023
0.559877	22.6279
0.580348	23.0078
0.600819	23.3876
0.619243	23.7674
0.639713	24.093
0.660184	24.3643
0.679632	24.5814
0.700102	24.9612
0.720573	25.1783
0.74002	25.3411
0.760491	25.5581
0.779939	25.7752
0.800409	25.9922
0.819857	26.155
0.839304	26.3721
0.859775	26.5349
0.880246	26.6434
0.899693	26.8605
0.920164	27.0233
0.940635	27.2946
