Adsorption isotherm of Carbon Dioxide on Coal Norit
DOI: 10.1016/j.micromeso.2005.10.031
Article source: Figure 1
Adsorbate Carbon Dioxide: InChIKey CURLTUGMZLYLDI-UHFFFAOYSA-N
Kind: experiment
Temperature: 298 K
Tabular data in the source: 0
pressure (bar)	uptake (mg/g)
0	0
0.00479	6.01375
0.008383	5.15464
0.013174	8.0756
0.019162	7.90378
0.027545	11.512
0.039521	11.8557
0.058683	16.8385
0.08024	19.0722
0.098204	23.3677
0.118563	25.0859
0.138922	28.866
0.159281	30.4124
0.178443	34.0206
0.2	35.567
0.223952	39.1753
0.249102	41.0653
0.273054	44.6735
0.300599	46.3918
0.322156	49.4845
0.349701	51.3746
0.373653	54.4674
0.398802	56.0137
0.423952	58.9347
0.449102	60.3093
0.473054	63.2302
0.499401	64.6048
0.524551	67.1821
0.548503	68.5567
0.573653	71.134
0.598802	72.6804
0.622754	74.9141
0.647904	76.4605
0.673054	78.5223
0.699401	79.8969
0.723353	82.3024
0.749701	83.5052
0.773653	85.567
0.798802	86.9416
0.822754	88.8316
0.847904	90.0344
0.873054	92.268
0.899401	93.6426
0.923353	95.3608
0.949701	97.079
