Adsorption isotherm of Carbon Dioxide on Bituminous Coal
DOI: 10.1016/j.micromeso.2005.10.031
Article source: Figure 5b
Adsorbate Carbon Dioxide: InChIKey CURLTUGMZLYLDI-UHFFFAOYSA-N
Kind: experiment
Temperature: 298 K
Tabular data in the source: 0
pressure (bar)	uptake (mg/g)
0	0.176378
0.01973	0.731206
0.03946	1.26084
0.05919	1.79047
0.07892	2.2949
0.099688	2.77417
0.119418	3.22821
0.140187	3.65708
0.158879	4.08589
0.179647	4.48957
0.199377	4.86802
0.219107	5.22127
0.238837	5.57452
0.259605	5.87741
0.280374	6.18029
0.299065	6.48313
0.319834	6.76081
0.339564	7.03848
0.360332	7.26577
0.379024	7.49301
0.399792	7.72031
0.419522	7.89718
0.440291	8.12448
0.458982	8.32653
0.479751	8.47823
0.500519	8.65513
0.519211	8.80678
0.539979	8.95849
0.559709	9.11017
0.580478	9.21148
0.599169	9.36313
0.619938	9.46444
0.639668	9.59092
0.660436	9.66703
0.679128	9.79349
0.699896	9.8948
0.719626	9.97089
0.740395	10.047
0.760125	10.1483
0.779855	10.2496
0.800623	10.3257
0.819315	10.4269
0.840083	10.4779
0.859813	10.5791
0.880582	10.6805
0.900312	10.7313
0.920042	10.8326
0.939772	10.9339
