Adsorption isotherm of Argon on MOF-74-Co
DOI: 10.1021/Jp501495f
Adsorbate Argon: InChIKey XKRFYHLGVUSROY-UHFFFAOYSA-N
Temperature: 292 K
Tabular data in the source: 0
pressure (bar)	uptake (cm3(STP)/g)
0.11392	0.684989
0.148086	0.94671
0.174121	1.12795
0.187147	1.16837
0.26688	1.71212
0.317325	2.05448
0.356368	2.37654
0.403573	2.59836
0.455649	2.92068
0.502832	3.28306
0.556534	3.62549
0.611858	4.00811
0.665566	4.31038
0.711133	4.59241
0.755071	4.8744
0.776226	5.01538
0.813657	5.23701
0.833182	5.37796
0.855965	5.51897
0.872239	5.6197
0.885258	5.70027
0.922696	5.88174
0.934086	5.96229
0.947108	6.02279
0.958498	6.10333
0.969885	6.20396
0.9829	6.30462
0.995916	6.40528
1.00568	6.48579
