Adsorption isotherm of Radon on MOF-74-Co
DOI: 10.1021/Jp501495f
Adsorbate Radon: InChIKey SYUHGPGVQRZVTB-UHFFFAOYSA-N
Temperature: 292 K
Tabular data in the source: 0
pressure (bar)	uptake (cm3(STP)/g)
0.0599379	34.0656
0.088926	64.7667
0.220044	137.777
0.356046	149.685
0.486418	161.566
