Adsorption isotherm of Xenon on Zn-MOF-74
DOI: 10.1021/Jp501495f
Adsorbate Xenon: InChIKey FHNFHKCVQCLJFQ-UHFFFAOYSA-N
Temperature: 292 K
Tabular data in the source: 0
pressure (bar)	uptake (cm3(STP)/g)
0.0254585	2.88036
0.0475226	5.12135
0.0763756	7.68363
0.113715	12.4826
0.212154	24.6413
0.359814	43.8367
0.536326	66.5519
0.668711	81.2745
0.739995	88.3182
0.838435	94.413
0.991185	104.036
