Adsorption isotherm of Krypton on NOTT-101
DOI: 10.1021/Jp501495f
Adsorbate Krypton: InChIKey DNNSSWSSYDEUBZ-UHFFFAOYSA-N
Temperature: 292 K
Tabular data in the source: 0
pressure (bar)	uptake (cm3(STP)/g)
0.135855	5.48753
0.249067	10.4926
0.362279	14.6874
0.467944	18.3974
0.537758	20.8168
0.68116	25.817
0.747201	27.9129
0.871734	31.9439
0.990608	35.6518
