Adsorption isotherm of Argon on NOTT-102
DOI: 10.1021/Jp501495f
Adsorbate Argon: InChIKey XKRFYHLGVUSROY-UHFFFAOYSA-N
Temperature: 292 K
Tabular data in the source: 0
pressure (bar)	uptake (cm3(STP)/g)
0.0898407	0.34188
0.109209	0.512821
0.132102	0.683761
0.142669	0.769231
0.163803	0.897436
0.181413	1.02564
0.206077	1.11111
0.260678	1.41026
0.309996	1.66667
0.35227	1.88034
0.410391	2.22222
0.459701	2.5641
0.507254	2.86325
0.56362	3.11966
0.607645	3.46154
0.658725	3.71795
0.711568	3.97436
0.75208	4.18803
0.785538	4.44444
0.815476	4.65812
0.831328	4.74359
0.855988	4.87179
0.873602	4.95726
0.894736	5.08547
0.922916	5.25641
0.933493	5.21368
0.949341	5.34188
0.959911	5.38462
0.973997	5.51282
0.988079	5.68376
1.00392	5.8547
