Adsorption isotherm of Xenon on NOTT-101
DOI: 10.1021/Jp501495f
Adsorbate Xenon: InChIKey FHNFHKCVQCLJFQ-UHFFFAOYSA-N
Temperature: 292 K
Tabular data in the source: 0
pressure (bar)	uptake (cm3(STP)/g)
0.124999	15.2425
0.138257	17.552
0.159089	19.8614
0.179923	21.2471
0.196969	23.5566
0.253786	29.0993
0.304922	33.7182
0.352271	38.7991
0.403406	44.8037
0.456436	48.9607
0.507572	54.5035
0.553026	59.1224
0.61742	65.5889
0.659086	69.746
0.712116	75.2887
0.755676	79.4457
0.782192	82.2171
0.812494	85.4503
0.835221	87.2979
0.856054	88.6836
0.874993	91.455
0.895826	93.7644
0.922341	96.5358
0.933705	97.9215
0.939387	98.8453
0.948857	100.693
0.956432	102.079
0.965902	103.002
0.977265	103.926
0.990523	105.312
1.00757	107.159
