Adsorption isotherm of Nitrogen on NOTT-100
DOI: 10.1021/Jp501495f
Adsorbate Nitrogen: InChIKey IJGRMHOSHXDMSA-UHFFFAOYSA-N
Temperature: 292 K
Tabular data in the source: 0
pressure (bar)	uptake (cm3(STP)/g)
0.130925	1.56756
0.151798	1.73131
0.193542	2.18874
0.212517	2.38486
0.263749	3.03779
0.311185	3.658
0.362417	4.27846
0.409854	4.76874
0.457291	5.35647
0.51042	6.04201
0.565446	6.59774
0.618576	7.21831
0.666012	7.7086
0.728629	8.58964
0.795041	9.17858
0.838682	9.47373
0.869042	9.76802
0.876633	9.89843
0.901299	10.2248
0.920274	10.3885
0.935454	10.4869
0.944941	10.5849
0.956326	10.6831
0.96771	10.7163
0.980993	10.7172
0.99048	10.7503
1.00566	10.8812
