Adsorption isotherm of Xenon on Mg-MOF-74
DOI: 10.1021/Jp501495f
Adsorbate Xenon: InChIKey FHNFHKCVQCLJFQ-UHFFFAOYSA-N
Temperature: 292 K
Tabular data in the source: 0
pressure (bar)	uptake (cm3(STP)/g)
0.0611005	8.63627
0.0848618	11.1969
0.100137	13.7549
0.120504	17.272
0.14087	20.7891
0.15954	23.6673
0.179907	26.546
0.20876	31.3424
0.251191	38.0578
0.298713	46.0515
0.353025	55.0048
0.407337	62.6815
0.453162	69.3981
0.512566	76.438
0.556694	81.8775
0.607611	87.9573
0.655133	94.0361
0.707747	98.8399
0.751876	103.003
0.775637	105.244
0.811279	108.766
0.841829	110.691
0.85371	111.652
0.879169	114.532
0.891049	115.493
0.935177	119.018
0.947057	119.979
0.953847	120.62
0.969122	121.582
0.981002	122.543
0.999672	124.145
1.01155	125.106
