Adsorption isotherm of Krypton on MOF-74-Co
DOI: 10.1021/Jp501495f
Adsorbate Krypton: InChIKey DNNSSWSSYDEUBZ-UHFFFAOYSA-N
Temperature: 292 K
Tabular data in the source: 0
pressure (bar)	uptake (cm3(STP)/g)
0.0653089	1.96402
0.110109	3.04644
0.153039	4.12911
0.173561	4.80663
0.188479	5.41687
0.209017	5.82227
0.307918	8.73416
0.3639	10.3593
0.404952	11.5783
0.455347	12.864
0.5076	14.3536
0.557992	15.7074
0.606521	16.9254
0.666247	18.482
0.709165	19.7687
0.75396	20.9192
0.776364	21.3924
0.804364	22.0689
0.837952	23.0848
0.852894	23.2868
0.869694	23.6927
0.886485	24.2347
0.925677	25.3179
0.944351	25.6555
0.953689	25.7903
0.966755	26.1287
0.981693	26.3988
0.99662	26.873
1.0022	27.2804
