Adsorption isotherm of Nitrogen on NOTT-102
DOI: 10.1021/Jp501495f
Adsorbate Nitrogen: InChIKey IJGRMHOSHXDMSA-UHFFFAOYSA-N
Temperature: 292 K
Tabular data in the source: 0
pressure (bar)	uptake (cm3(STP)/g)
0.0626166	0.296358
0.0872837	0.42787
0.106259	0.623982
0.130925	0.723012
0.151798	0.919245
0.170772	0.985427
0.189747	1.11657
0.208722	1.18276
0.256159	1.47814
0.309287	1.77389
0.362417	2.10212
0.409854	2.39751
0.46488	2.6609
0.516112	3.02149
0.565446	3.28451
0.610986	3.51481
0.666012	3.81068
0.715347	4.07371
0.758989	4.33637
0.787451	4.46812
0.819708	4.66509
0.838682	4.76375
0.857657	4.92738
0.876633	4.99356
0.893709	5.12459
0.918376	5.32106
0.931659	5.38688
0.941146	5.41997
0.956326	5.51839
0.965814	5.58397
0.977198	5.77959
0.99048	5.71548
0.999967	5.84602
1.01705	5.91208
1.01894	5.78227
