Adsorption isotherm of Xenon on NOTT-102
DOI: 10.1021/Jp501495f
Adsorbate Xenon: InChIKey FHNFHKCVQCLJFQ-UHFFFAOYSA-N
Temperature: 292 K
Tabular data in the source: 0
pressure (bar)	uptake (cm3(STP)/g)
0.0321967	2.77136
0.0624995	5.08083
0.0757571	5.54273
0.107954	7.3903
0.123105	8.31409
0.138257	9.23788
0.170453	11.0855
0.19318	12.0092
0.206438	12.4711
0.257574	14.7806
0.301134	16.6282
0.361739	19.8614
0.412876	22.1709
0.458329	24.0185
0.517041	27.2517
0.566284	28.6374
0.609844	30.0231
0.662874	32.3326
0.712116	34.1801
0.751888	36.0277
0.776509	36.9515
0.808706	38.3372
0.839009	40.1848
0.850372	41.1085
0.876888	43.418
0.892039	43.8799
0.924236	43.8799
0.939387	44.8037
0.952644	45.2656
0.967796	46.1894
0.984842	47.5751
0.99431	49.8845
1.00567	50.3464
