Adsorption isotherm of Argon on NOTT-100
DOI: 10.1021/Jp501495f
Adsorbate Argon: InChIKey XKRFYHLGVUSROY-UHFFFAOYSA-N
Temperature: 292 K
Tabular data in the source: 0
pressure (bar)	uptake (cm3(STP)/g)
0.133774	1.7094
0.302751	3.88889
0.48932	6.41026
0.758634	9.78632
0.976896	12.6068
