Adsorption isotherm of Xenon on MOF-74-Ni
DOI: 10.1021/Jp501495f
Adsorbate Xenon: InChIKey FHNFHKCVQCLJFQ-UHFFFAOYSA-N
Temperature: 292 K
Tabular data in the source: 0
pressure (bar)	uptake (cm3(STP)/g)
0.0305503	8.30749
0.0594033	15.657
0.0797701	19.8124
0.101835	25.8831
0.113715	28.7592
0.142568	34.513
0.162935	38.6683
0.184999	42.8242
0.201971	45.7019
0.256282	55.2935
0.298713	61.6898
0.353025	68.0899
0.398851	72.5724
0.461648	78.656
0.505776	82.8189
0.563483	87.3051
0.602519	90.1898
0.660225	93.0803
0.707747	95.9676
0.745086	98.2134
0.775637	99.1805
0.811279	101.426
0.833343	102.709
0.857104	103.674
0.87238	104.317
0.897838	104.964
0.918205	105.928
0.931783	106.57
0.947057	107.213
0.958939	107.855
0.965728	107.857
0.975911	108.499
0.991185	109.461
1.00307	110.103
