Adsorption isotherm of Krypton on NOTT-103
DOI: 10.1021/Jp501495f
Adsorbate Krypton: InChIKey DNNSSWSSYDEUBZ-UHFFFAOYSA-N
Temperature: 292 K
Tabular data in the source: 0
pressure (bar)	uptake (cm3(STP)/g)
0.0471718	2.58505
0.0792486	3.87622
0.12076	5.81402
0.256615	12.2738
0.547193	24.056
0.739653	31.965
0.998155	40.0256
