Adsorption isotherm of Nitrogen on PCN-14
DOI: 10.1021/Jp501495f
Adsorbate Nitrogen: InChIKey IJGRMHOSHXDMSA-UHFFFAOYSA-N
Temperature: 292 K
Tabular data in the source: 0
pressure (bar)	uptake (cm3(STP)/g)
0.00948736	0.130539
0.0740014	1.04419
0.104361	1.43593
0.250466	3.42673
0.366212	4.89587
0.542677	7.21345
0.745706	10.02
0.851965	11.4235
0.973403	12.9905
