Adsorption isotherm of Krypton on NOTT-100
DOI: 10.1021/Jp501495f
Adsorbate Krypton: InChIKey DNNSSWSSYDEUBZ-UHFFFAOYSA-N
Temperature: 292 K
Tabular data in the source: 0
pressure (bar)	uptake (cm3(STP)/g)
0.167932	6.13055
0.190574	6.93712
0.21133	7.41991
0.269822	9.355
0.303787	10.8079
0.362279	12.743
0.415111	14.1929
0.464171	16.1295
0.517003	17.7414
0.560401	19.3548
0.611346	20.967
0.658518	22.4178
0.70569	23.7066
0.752862	25.3194
0.781165	26.6112
0.807581	27.2551
0.830224	28.2237
0.849092	28.5448
0.867961	29.1899
0.888717	29.8347
0.915133	30.8027
0.930227	31.2864
0.941548	31.6087
0.950983	31.9313
0.960417	32.2538
0.971739	32.7381
0.986834	33.0598
0.998155	33.22
1.01325	33.5417
