Adsorption isotherm of Nitrogen on NOTT-103
DOI: 10.1021/Jp501495f
Adsorbate Nitrogen: InChIKey IJGRMHOSHXDMSA-UHFFFAOYSA-N
Temperature: 292 K
Tabular data in the source: 0
pressure (bar)	uptake (cm3(STP)/g)
0.0607191	0.458649
0.0815912	0.524953
0.108156	0.721552
0.129028	0.85282
0.1499	0.984089
0.17267	1.14796
0.189747	1.2465
0.20303	1.27984
0.252364	1.70528
0.305493	2.03351
0.360519	2.39434
0.417444	2.7553
0.462983	3.08305
0.51042	3.41092
0.559754	3.70642
0.610986	4.06702
0.664115	4.39525
0.722937	4.78881
0.757091	5.05086
0.791246	5.28043
0.821605	5.44479
0.838682	5.57581
0.865248	5.77241
0.878529	5.87071
0.895607	5.96926
0.922171	6.13337
0.937352	6.19931
0.941146	6.297
0.956326	6.36294
0.962018	6.39579
0.975301	6.49409
0.979095	6.5593
0.99048	6.65747
1.00566	6.85334
