Adsorption isotherm of Krypton on NOTT-103
DOI: 10.1021/Jp501495f
Adsorbate Krypton: InChIKey DNNSSWSSYDEUBZ-UHFFFAOYSA-N
Temperature: 292 K
Tabular data in the source: 0
pressure (bar)	uptake (cm3(STP)/g)
0.0679274	1.44747
0.0924567	2.0917
0.124533	2.89675
0.141516	3.21811
0.167932	3.86203
0.192461	3.69607
0.207556	4.17977
0.254728	5.63056
0.30756	6.59433
0.362279	7.88188
0.415111	9.33176
0.460396	9.97267
0.511342	11.0988
0.566061	12.0623
0.61512	13.3507
0.662292	14.1533
0.707577	14.7943
0.743428	15.5987
0.786825	16.564
0.807581	16.8847
0.835884	17.5284
0.85664	18.0112
0.877395	18.4939
0.89249	18.8156
0.915133	19.4601
0.930227	19.6198
0.95287	20.2643
0.964191	20.4245
0.977399	20.7465
0.986834	20.907
0.998155	21.2293
1.00759	21.3898
