Adsorption isotherm of Argon on PCN-14
DOI: 10.1021/Jp501495f
Adsorbate Argon: InChIKey XKRFYHLGVUSROY-UHFFFAOYSA-N
Temperature: 292 K
Tabular data in the source: 0
pressure (bar)	uptake (cm3(STP)/g)
0.0123126	0.25641
0.0281534	0.470085
0.049258	0.940171
0.0756492	1.41026
0.107312	2.05128
0.244543	4.52991
0.362424	6.62393
0.489101	8.88889
0.624586	11.1966
0.749504	13.4188
0.84453	14.9145
0.971221	17.0085
