Adsorption isotherm of Krypton on Mg-MOF-74
DOI: 10.1021/Jp501495f
Adsorbate Krypton: InChIKey DNNSSWSSYDEUBZ-UHFFFAOYSA-N
Temperature: 292 K
Tabular data in the source: 0
pressure (bar)	uptake (cm3(STP)/g)
0.136723	3.17892
0.142342	3.31422
0.164817	3.85542
0.21164	4.93757
0.318397	7.37221
0.3596	8.31906
0.412042	9.53651
0.460738	10.6864
0.509435	11.7003
0.561877	13.0538
0.610572	14.0677
0.663014	15.2171
0.709837	16.2992
0.747295	17.1786
0.777262	17.7868
0.818466	18.7336
0.837196	19.2073
0.857797	19.6127
0.880273	20.0179
0.900874	20.4233
0.919604	20.8969
0.942079	21.3021
0.947698	21.4374
0.957062	21.7082
0.966427	21.843
0.975791	22.0458
0.988902	22.3162
1.00389	22.6543
1.01325	22.7891
