Adsorption isotherm of Xenon on MOF-74-Co
DOI: 10.1021/Jp501495f
Adsorbate Xenon: InChIKey FHNFHKCVQCLJFQ-UHFFFAOYSA-N
Temperature: 292 K
Tabular data in the source: 0
pressure (bar)	uptake (cm3(STP)/g)
0.0526143	3.20806
0.122201	9.61296
0.213851	19.5354
0.353025	34.5793
0.461648	45.4646
0.529538	52.5072
0.648344	62.7574
0.768848	73.9656
0.868984	81.9758
0.986094	90.9489
