Adsorption isotherm of Radon on MOF-74-Mg
DOI: 10.1021/Jp501495f
Adsorbate Radon: InChIKey SYUHGPGVQRZVTB-UHFFFAOYSA-N
Temperature: 292 K
Tabular data in the source: 0
pressure (bar)	uptake (cm3(STP)/g)
0.0639156	63.9269
0.0902338	103.881
0.195507	134.703
0.759467	172.374
1.1768	179.224
1.64676	189.498
1.95131	192.922
