Adsorption isotherm of Radon on PCN-14
DOI: 10.1021/Jp501495f
Adsorbate Radon: InChIKey SYUHGPGVQRZVTB-UHFFFAOYSA-N
Temperature: 292 K
Tabular data in the source: 0
pressure (bar)	uptake (cm3(STP)/g)
0.00751948	22.8311
0.0187987	49.0868
0.0413571	93.6073
0.0639156	149.543
0.0751948	172.374
0.105273	186.073
0.210545	207.763
0.507565	228.311
0.763228	236.301
0.985052	240.868
1.66556	248.858
1.99643	252.283
