Adsorption isotherm of Nitrogen on Mg-MOF-74
DOI: 10.1021/Jp501495f
Adsorbate Nitrogen: InChIKey IJGRMHOSHXDMSA-UHFFFAOYSA-N
Temperature: 292 K
Tabular data in the source: 0
pressure (bar)	uptake (cm3(STP)/g)
0.123415	1.03672
0.174681	1.49728
0.241123	1.90149
0.303774	2.36269
0.355037	2.76604
0.410095	3.16961
0.467054	3.63049
0.522111	4.03406
0.577164	4.38041
0.632221	4.78398
0.687274	5.13034
0.751837	5.76327
0.814479	6.11006
0.871433	6.51373
0.924594	6.91719
0.979647	7.26355
