Adsorption isotherm of Xenon on NOTT-103
DOI: 10.1021/Jp501495f
Adsorbate Xenon: InChIKey FHNFHKCVQCLJFQ-UHFFFAOYSA-N
Temperature: 292 K
Tabular data in the source: 0
pressure (bar)	uptake (cm3(STP)/g)
0.0189393	7.3903
0.049242	13.3949
0.0719691	19.3995
0.123105	24.9423
0.21212	38.7991
0.390149	61.8938
0.526511	79.4457
0.640147	92.3788
0.761358	105.312
0.920447	127.021
1.01325	137.644
