Adsorption isotherm of Argon on MOF-74-Ni
DOI: 10.1021/Jp501495f
Adsorbate Argon: InChIKey XKRFYHLGVUSROY-UHFFFAOYSA-N
Temperature: 292 K
Tabular data in the source: 0
pressure (bar)	uptake (cm3(STP)/g)
0.102524	0.644602
0.252235	1.61142
0.416603	2.6187
0.493084	3.12222
0.745306	4.81397
0.979662	6.18407
