Adsorption isotherm of Radon on NOTT-100
DOI: 10.1021/Jp501495f
Adsorbate Radon: InChIKey SYUHGPGVQRZVTB-UHFFFAOYSA-N
Temperature: 292 K
Tabular data in the source: 0
pressure (bar)	uptake (cm3(STP)/g)
0.0263182	86.758
0.0451169	150.685
0.0827143	171.233
0.109033	188.356
0.210545	210.046
0.507565	229.452
0.763228	235.16
0.985052	237.443
1.66556	243.151
2.00019	242.009
