Adsorption isotherm of Nitrogen on Zn-MOF-74
DOI: 10.1021/Jp501495f
Adsorbate Nitrogen: InChIKey IJGRMHOSHXDMSA-UHFFFAOYSA-N
Temperature: 292 K
Tabular data in the source: 0
pressure (bar)	uptake (cm3(STP)/g)
0.0493648	0.403245
0.0702632	0.747674
0.11774	1.26523
0.169019	1.89741
0.227884	2.47282
0.256373	2.81768
0.305742	3.27813
0.357018	3.85311
0.413976	4.31399
0.469047	4.88918
0.526011	5.40727
0.577277	5.86783
0.639941	6.50066
0.69311	7.01854
0.744377	7.4791
0.820336	8.2843
0.884903	8.97445
0.936174	9.49222
0.989342	10.0101
