Adsorption isotherm of Argon on CuBTC
DOI: 10.1021/Jp501495f
Adsorbate Argon: InChIKey XKRFYHLGVUSROY-UHFFFAOYSA-N
Temperature: 292 K
Tabular data in the source: 0
pressure (bar)	uptake (cm3(STP)/g)
0.258859	2.05128
0.311675	2.60684
0.359228	2.90598
0.412058	3.2906
0.464886	3.71795
0.508911	4.05983
0.563501	4.48718
0.609279	4.91453
0.662114	5.25641
0.713183	5.64103
0.751929	5.89744
0.780097	6.19658
0.811801	6.36752
0.832932	6.53846
0.857583	6.75214
0.875187	6.96581
0.892794	7.13675
0.915683	7.35043
0.931534	7.4359
0.94387	7.4359
0.968533	7.52137
0.982623	7.60684
1.00728	7.77778
