Adsorption isotherm of Krypton on NOTT-102
DOI: 10.1021/Jp501495f
Adsorbate Krypton: InChIKey DNNSSWSSYDEUBZ-UHFFFAOYSA-N
Temperature: 292 K
Tabular data in the source: 0
pressure (bar)	uptake (cm3(STP)/g)
0.073588	1.44657
0.101891	1.92815
0.122647	2.24891
0.15095	2.89253
0.175479	2.8886
0.190574	3.21026
0.207556	3.53162
0.260388	4.65743
0.311334	5.1354
0.364166	6.26121
0.413225	7.06355
0.467944	7.70295
0.515116	8.82966
0.566061	9.14559
0.611346	10.1106
0.658518	10.7512
0.701916	11.5544
0.749088	12.195
0.786825	12.351
0.818903	13.4802
0.835884	13.4774
0.85664	13.7982
0.875509	14.1192
0.894378	14.2783
0.932115	14.9204
0.943436	15.2426
0.95287	15.4032
0.962305	15.5637
0.969851	15.7245
0.98306	15.7224
0.992495	15.8829
