Adsorption isotherm of Xenon on CuBTC
DOI: 10.1021/Jp501495f
Adsorbate Xenon: InChIKey FHNFHKCVQCLJFQ-UHFFFAOYSA-N
Temperature: 292 K
Tabular data in the source: 0
pressure (bar)	uptake (cm3(STP)/g)
0.0833327	16.1663
0.102272	18.9376
0.121211	20.7852
0.142044	23.0947
0.166665	26.3279
0.187499	28.1755
0.204544	30.0231
0.246211	34.1801
0.306816	41.1085
0.359846	46.1894
0.403406	50.3464
0.452648	55.4273
0.503784	60.97
0.558708	65.5889
0.611738	71.1316
0.668555	77.5982
0.71401	81.7552
0.749994	85.4503
0.782192	88.6836
0.814388	91.455
0.835221	94.2263
0.852266	96.0739
0.880675	98.3834
0.893933	99.3072
0.920447	102.54
0.928024	103.002
0.939387	104.85
0.954538	106.236
0.973478	108.083
0.990523	110.393
1.00567	112.24
