Adsorption isotherm of Krypton on NOTT-102
DOI: 10.1021/Jp501495f
Adsorbate Krypton: InChIKey DNNSSWSSYDEUBZ-UHFFFAOYSA-N
Temperature: 292 K
Tabular data in the source: 0
pressure (bar)	uptake (cm3(STP)/g)
0.166044	8.39937
0.313221	14.6953
0.545306	23.4082
0.76041	30.6654
0.954757	36.9538
