Adsorption isotherm of Radon on NOTT-103
DOI: 10.1021/Jp501495f
Adsorbate Radon: InChIKey SYUHGPGVQRZVTB-UHFFFAOYSA-N
Temperature: 292 K
Tabular data in the source: 0
pressure (bar)	uptake (cm3(STP)/g)
0.0338377	33.105
0.109033	86.758
0.218065	213.47
0.518844	326.484
0.759467	350.457
1.00009	364.155
1.66933	383.562
1.96634	390.411
