Adsorption isotherm of Argon on Zn-MOF-74
DOI: 10.1021/Jp501495f
Adsorbate Argon: InChIKey XKRFYHLGVUSROY-UHFFFAOYSA-N
Temperature: 292 K
Tabular data in the source: 0
pressure (bar)	uptake (cm3(STP)/g)
0.0618633	0.24219
0.0846498	0.363123
0.109072	0.443929
0.126974	0.544685
0.149761	0.665619
0.172548	0.786552
0.188825	0.867196
0.205105	0.92776
0.258821	1.18987
0.307658	1.39164
0.358118	1.6336
0.410207	1.8756
0.455787	2.07731
0.501363	2.29909
0.553452	2.54109
0.608796	2.80323
0.657635	3.005
0.712978	3.26714
0.745532	3.42843
0.781347	3.5697
0.809021	3.69073
0.836692	3.83184
0.852972	3.89241
0.869249	3.97305
0.892036	4.09398
0.919716	4.17485
0.937622	4.25553
0.955528	4.33621
0.983192	4.51748
0.994588	4.55786
1.0076	4.6786
