Adsorption isotherm of Argon on NOTT-100
DOI: 10.1021/Jp501495f
Adsorbate Argon: InChIKey XKRFYHLGVUSROY-UHFFFAOYSA-N
Temperature: 292 K
Tabular data in the source: 0
pressure (bar)	uptake (cm3(STP)/g)
0.151389	1.79487
0.172524	1.92308
0.186606	2.09402
0.202454	2.22222
0.25527	2.77778
0.304566	3.2906
0.360895	3.97436
0.406682	4.31624
0.455974	4.87179
0.507028	5.42735
0.56161	5.94017
0.612665	6.49573
0.66196	7.00855
0.713014	7.5641
0.751748	7.94872
0.781679	8.24786
0.811601	8.63248
0.832728	8.84615
0.85386	9.01709
0.876749	9.23077
0.892594	9.40171
0.920763	9.70085
0.934856	9.74359
0.950708	9.82906
0.980646	10.0427
1.00002	10.1282
