Adsorption isotherm of Radon on Mg-MOF-74
DOI: 10.1021/Jp501495f
Adsorbate Radon: InChIKey SYUHGPGVQRZVTB-UHFFFAOYSA-N
Temperature: 292 K
Tabular data in the source: 0
pressure (bar)	uptake (cm3(STP)/g)
0.036511	25.1069
0.0607805	64.6326
0.0888128	100.959
0.225659	142.63
0.351347	152.075
0.503305	161.646
