Adsorption isotherm of Xenon on Zn-MOF-74
DOI: 10.1021/Jp501495f
Adsorbate Xenon: InChIKey FHNFHKCVQCLJFQ-UHFFFAOYSA-N
Temperature: 292 K
Tabular data in the source: 0
pressure (bar)	uptake (cm3(STP)/g)
0.0237613	3.19897
0.0763756	7.36448
0.105229	10.8842
0.14087	14.0869
0.168026	16.6487
0.184999	18.2498
0.264769	26.8919
0.297016	30.7319
0.351328	35.8553
0.405639	41.6171
0.505776	49.9465
0.56518	55.0716
0.602519	59.2323
0.655133	62.4404
0.70605	65.9671
0.756968	69.4937
0.777334	71.0959
0.811279	73.3406
0.835041	74.6247
0.858801	76.2279
0.877471	77.1913
0.896141	78.4738
0.923297	80.3972
0.941966	81.6797
0.960636	82.643
0.977608	83.6058
1.00646	85.8489
