Adsorption isotherm of Argon on NOTT-101
DOI: 10.1021/Jp501495f
Adsorbate Argon: InChIKey XKRFYHLGVUSROY-UHFFFAOYSA-N
Temperature: 292 K
Tabular data in the source: 0
pressure (bar)	uptake (cm3(STP)/g)
0.244667	3.11966
0.364382	4.40171
0.496406	5.98291
0.626668	7.5641
0.753412	9.05983
0.871373	10.2564
0.992846	11.5812
