Adsorption isotherm of Argon on NOTT-103
DOI: 10.1021/Jp501495f
Adsorbate Argon: InChIKey XKRFYHLGVUSROY-UHFFFAOYSA-N
Temperature: 292 K
Tabular data in the source: 0
pressure (bar)	uptake (cm3(STP)/g)
0.0510465	0.641026
0.0756831	1.02564
0.103837	1.49573
0.251689	3.4188
0.362578	4.87179
0.483995	6.83761
0.630098	8.63248
0.751552	10.1709
0.858924	11.5385
0.987434	12.9915
