Adsorption isotherm of Xenon on Mg-MOF-74
DOI: 10.1021/Jp501495f
Adsorbate Xenon: InChIKey FHNFHKCVQCLJFQ-UHFFFAOYSA-N
Temperature: 292 K
Tabular data in the source: 0
pressure (bar)	uptake (cm3(STP)/g)
0.115412	13.1215
0.213851	25.2801
0.361511	44.7947
0.541418	68.4684
0.629675	76.1558
0.753573	89.9182
1.00137	104.677
