Adsorption isotherm of Nitrogen on MOF-74-Co
DOI: 10.1021/Jp501495f
Adsorbate Nitrogen: InChIKey IJGRMHOSHXDMSA-UHFFFAOYSA-N
Temperature: 292 K
Tabular data in the source: 0
pressure (bar)	uptake (cm3(STP)/g)
0.0873405	0.748638
0.1272	0.922514
0.17657	1.38297
0.229721	1.67201
0.29807	2.19074
0.355033	2.70883
0.408193	3.11229
0.465148	3.51596
0.518308	3.91942
0.579061	4.38052
0.637914	4.7843
0.692967	5.13066
0.742331	5.5339
0.810676	5.99543
0.873327	6.45663
0.926482	6.80288
0.98154	7.20645
