Adsorption isotherm of Krypton on NOTT-101
DOI: 10.1021/Jp501495f
Adsorbate Krypton: InChIKey DNNSSWSSYDEUBZ-UHFFFAOYSA-N
Temperature: 292 K
Tabular data in the source: 0
pressure (bar)	uptake (cm3(STP)/g)
0.147176	3.70332
0.192461	4.50626
0.21133	5.15139
0.25284	6.11697
0.30756	7.40452
0.352845	8.3695
0.401904	9.17184
0.462283	10.6205
0.503795	11.5861
0.560401	12.8733
0.613233	13.9992
0.658518	14.9641
0.709463	16.0902
0.749088	16.8941
0.788713	17.6979
0.811355	18.0184
0.843431	18.6614
0.854752	18.9837
0.875509	19.6285
0.888717	19.9505
0.928341	20.9164
0.937775	20.9148
0.945323	20.9136
0.956644	21.2359
0.971739	21.5576
0.981174	22.0422
0.990608	22.3647
1.0057	23.0105
