Adsorption isotherm of Nitrogen on MOF-74-Ni
DOI: 10.1021/Jp501495f
Adsorbate Nitrogen: InChIKey IJGRMHOSHXDMSA-UHFFFAOYSA-N
Temperature: 292 K
Tabular data in the source: 0
pressure (bar)	uptake (cm3(STP)/g)
0.0589044	1.09028
0.0816958	1.37761
0.100692	1.66472
0.127288	2.06668
0.146284	2.3538
0.172871	2.64134
0.191867	2.92845
0.212761	3.21567
0.262152	3.96217
0.303949	4.65103
0.355232	5.34042
0.406521	6.08703
0.459706	6.83374
0.509093	7.52302
0.558484	8.26952
0.605978	9.01591
0.661062	9.76272
0.712354	10.5665
0.763642	11.3131
0.78834	11.715
0.822529	12.1746
0.839629	12.4616
0.864326	12.8634
0.881429	13.2077
0.898537	13.6091
0.925133	14.011
0.940329	14.2407
0.951728	14.413
0.963134	14.6997
0.974536	14.9292
0.985943	15.2158
0.993554	15.5023
1.00495	15.6174
