Adsorption isotherm of Nitrogen on NOTT-100
DOI: 10.1021/Jp501495f
Adsorbate Nitrogen: InChIKey IJGRMHOSHXDMSA-UHFFFAOYSA-N
Temperature: 292 K
Tabular data in the source: 0
pressure (bar)	uptake (cm3(STP)/g)
0.174568	1.92767
0.332057	3.85424
0.394674	4.57287
0.447804	5.22593
0.529395	6.17315
0.605293	7.08753
0.688782	7.96992
0.745706	8.55825
0.762784	8.62431
0.819708	9.24513
0.859555	9.83237
0.912684	10.388
