Adsorption isotherm of Xenon on NOTT-103
DOI: 10.1021/Jp501495f
Adsorbate Xenon: InChIKey FHNFHKCVQCLJFQ-UHFFFAOYSA-N
Temperature: 292 K
Tabular data in the source: 0
pressure (bar)	uptake (cm3(STP)/g)
0.0568178	7.85219
0.0814388	10.6236
0.0984842	11.5473
0.121211	14.3187
0.142044	16.1663
0.168559	18.4758
0.187499	20.7852
0.200756	21.2471
0.249998	27.2517
0.303028	30.485
0.352271	34.642
0.403406	38.7991
0.454542	43.8799
0.503784	48.037
0.553026	51.7321
0.611738	55.8891
0.659086	60.0462
0.70454	64.2032
0.759464	68.3603
0.782192	71.1316
0.818176	74.3649
0.856054	77.5982
0.869312	78.06
0.892039	80.3695
0.928024	83.6028
0.943175	84.5266
0.956432	85.9122
0.971584	87.2979
0.99431	89.1455
1.00946	91.455
