Adsorption isotherm of Argon on Mg-MOF-74
DOI: 10.1021/Jp501495f
Adsorbate Argon: InChIKey XKRFYHLGVUSROY-UHFFFAOYSA-N
Temperature: 292 K
Tabular data in the source: 0
pressure (bar)	uptake (cm3(STP)/g)
0.14808	0.98687
0.205023	1.42977
0.263599	1.85261
0.315669	2.21509
0.40516	2.85943
0.453979	3.18169
0.50279	3.5441
0.551604	3.88643
0.606926	4.28914
0.662247	4.69184
0.712697	4.99404
0.751744	5.29602
0.779411	5.45721
0.807062	5.71881
0.836352	5.92019
0.852618	6.06107
0.870516	6.20199
0.881905	6.28254
0.914446	6.52415
0.924207	6.60466
0.935587	6.74545
0.958354	6.98686
0.97137	7.08752
0.984386	7.18818
0.994153	7.22854
1.00067	7.22867
