Adsorption isotherm of Nitrogen on Mg-MOF-74
DOI: 10.1021/Jp501495f
Adsorbate Nitrogen: InChIKey IJGRMHOSHXDMSA-UHFFFAOYSA-N
Temperature: 292 K
Tabular data in the source: 0
pressure (bar)	uptake (cm3(STP)/g)
0.0266298	0.859627
0.0589521	1.71958
0.0779617	2.17831
0.104574	2.80911
0.127396	3.4969
0.148307	4.01295
0.169215	4.4718
0.190121	4.93064
0.209135	5.44659
0.258565	6.70796
0.306094	7.91202
0.35931	9.05919
0.410642	10.3779
0.456255	11.353
0.50948	12.6146
0.568402	13.9337
0.610225	14.9658
0.661543	16.1129
0.714764	17.3172
0.758489	18.4067
0.787002	19.0948
0.821214	19.8404
0.832625	20.1843
0.857339	20.815
0.883939	21.2742
0.893452	21.618
0.920065	22.2487
0.929566	22.4209
0.94287	22.7077
0.948583	22.9941
0.959991	23.2807
0.965696	23.4527
0.971397	23.5674
0.980906	23.854
0.986616	24.0832
1.00181	24.3129
