Adsorption isotherm of Radon on PCN-14
DOI: 10.1021/Jp501495f
Adsorbate Radon: InChIKey SYUHGPGVQRZVTB-UHFFFAOYSA-N
Temperature: 292 K
Tabular data in the source: 0
pressure (bar)	uptake (cm3(STP)/g)
0.00459783	29.7806
0.00462551	20.9336
0.0101816	44.2844
0.0259798	92.617
0.0520703	149.846
0.073583	170.86
0.105434	186.293
0.204812	208.482
0.361456	219.684
0.503096	228.401
