Adsorption isotherm of Xenon on PCN-14
DOI: 10.1021/Jp501495f
Adsorbate Xenon: InChIKey FHNFHKCVQCLJFQ-UHFFFAOYSA-N
Temperature: 292 K
Tabular data in the source: 0
pressure (bar)	uptake (cm3(STP)/g)
0.00946962	6.92841
0.0227271	15.2425
0.051136	26.3279
0.0757571	36.9515
0.113636	51.7321
0.214014	82.2171
0.354164	109.469
0.528405	142.263
0.746207	162.125
1.00567	175.982
