Adsorption isotherm of Nitrogen on MOF-74-Co
DOI: 10.1021/Jp501495f
Adsorbate Nitrogen: InChIKey IJGRMHOSHXDMSA-UHFFFAOYSA-N
Temperature: 292 K
Tabular data in the source: 0
pressure (bar)	uptake (cm3(STP)/g)
0.0228175	0.630579
0.104505	1.89377
0.127297	2.1811
0.146301	2.58263
0.165303	2.92695
0.188098	3.27149
0.207094	3.5586
0.25649	4.36231
0.305877	5.05159
0.349575	5.79777
0.40656	6.6019
0.455959	7.46281
0.503448	8.15199
0.556639	8.95591
0.60603	9.70241
0.655417	10.3917
0.706709	11.1955
0.748493	11.7127
0.782695	12.344
0.809286	12.6887
0.832078	12.976
0.847275	13.2057
0.87387	13.6077
0.887165	13.7801
0.919466	14.354
0.942258	14.6413
0.963143	14.8141
0.987832	15.1015
1.00492	15.2169
