Adsorption isotherm of Nitrogen on PCN-14
DOI: 10.1021/Jp501495f
Adsorbate Nitrogen: InChIKey IJGRMHOSHXDMSA-UHFFFAOYSA-N
Temperature: 292 K
Tabular data in the source: 0
pressure (bar)	uptake (cm3(STP)/g)
0.064514	0.523858
0.0891812	0.817783
0.111951	0.981656
0.138515	1.21074
0.155593	1.37425
0.170772	1.57011
0.19544	1.73411
0.208722	1.86489
0.261851	2.38802
0.313083	2.81358
0.360519	3.30386
0.411751	3.66445
0.468676	4.18782
0.51801	4.61326
0.563549	5.07094
0.610986	5.46377
0.666012	5.92205
0.715347	6.34749
0.755193	6.70735
0.783656	7.00152
0.815912	7.26345
0.844375	7.49265
0.86335	7.65628
0.876633	7.78706
0.905094	8.01627
0.931659	8.24535
0.950633	8.40898
0.962018	8.50716
0.973403	8.60533
0.992378	8.76896
1.01894	9.09549
