Adsorption isotherm of Radon on MOF-74-Ni
DOI: 10.1021/Jp501495f
Adsorbate Radon: InChIKey SYUHGPGVQRZVTB-UHFFFAOYSA-N
Temperature: 292 K
Tabular data in the source: 0
pressure (bar)	uptake (cm3(STP)/g)
0.0338377	14.8402
0.0488766	31.9635
0.0751948	55.9361
0.109033	93.6073
0.218065	135.845
0.511324	156.393
0.774506	164.384
0.988811	171.233
1.31591	176.941
1.66933	183.79
2.0077	187.215
