Adsorption isotherm of Xenon on NOTT-101
DOI: 10.1021/Jp501495f
Adsorbate Xenon: InChIKey FHNFHKCVQCLJFQ-UHFFFAOYSA-N
Temperature: 292 K
Tabular data in the source: 0
pressure (bar)	uptake (cm3(STP)/g)
0.0378785	9.23788
0.185605	32.7945
0.357952	51.7321
0.528405	71.5935
0.746207	93.7644
0.984842	118.245
