Adsorption isotherm of Xenon on MOF-74-Ni
DOI: 10.1021/Jp501495f
Adsorbate Xenon: InChIKey FHNFHKCVQCLJFQ-UHFFFAOYSA-N
Temperature: 292 K
Tabular data in the source: 0
pressure (bar)	uptake (cm3(STP)/g)
0.0543115	4.16604
0.0763756	6.72618
0.117109	9.9305
0.215549	19.8551
0.346237	33.9388
0.51596	53.4604
0.631372	64.0287
0.750179	74.9171
0.874077	84.2115
0.984397	91.2675
