Adsorption isotherm of Radon on NOTT-103
DOI: 10.1021/Jp501495f
Adsorbate Radon: InChIKey SYUHGPGVQRZVTB-UHFFFAOYSA-N
Temperature: 292 K
Tabular data in the source: 0
pressure (bar)	uptake (cm3(STP)/g)
0.0252378	29.8789
0.078616	61.5004
0.110439	85.7807
0.21887	213.375
0.340688	260.604
0.502794	324.915
