Adsorption isotherm of Nitrogen on NOTT-101
DOI: 10.1021/Jp501495f
Adsorbate Nitrogen: InChIKey IJGRMHOSHXDMSA-UHFFFAOYSA-N
Temperature: 292 K
Tabular data in the source: 0
pressure (bar)	uptake (cm3(STP)/g)
0.0132823	0.0982994
0.0664115	0.588945
0.110053	1.0465
0.170772	1.76501
0.252364	2.58231
0.402264	4.21605
0.521805	5.5555
0.66791	6.96162
0.741912	7.71346
0.86335	8.9231
0.980993	10.0675
