Adsorption isotherm of Krypton on Zn-MOF-74
DOI: 10.1021/Jp501495f
Adsorbate Krypton: InChIKey DNNSSWSSYDEUBZ-UHFFFAOYSA-N
Temperature: 292 K
Tabular data in the source: 0
pressure (bar)	uptake (cm3(STP)/g)
0.0691072	1.01113
0.0858986	1.55309
0.106442	1.89047
0.125119	2.16007
0.151271	2.49669
0.166197	2.97088
0.188614	3.23998
0.201691	3.37428
0.265178	4.59024
0.308133	5.26475
0.366028	6.20935
0.40524	6.95239
0.4594	7.82947
0.511691	8.7068
0.558377	9.51686
0.605063	10.3269
0.649879	11.1372
0.717118	12.1486
0.745118	12.8251
0.77873	13.4329
0.806747	13.8373
0.836628	14.3094
0.857167	14.7148
0.870241	14.9172
0.888919	15.1868
0.922532	15.7945
0.93374	15.929
0.943074	16.1319
0.956148	16.3342
0.967353	16.5368
0.984161	16.8066
0.999095	17.1448
