Adsorption isotherm of Radon on NOTT-101
DOI: 10.1021/Jp501495f
Adsorbate Radon: InChIKey SYUHGPGVQRZVTB-UHFFFAOYSA-N
Temperature: 292 K
Tabular data in the source: 0
pressure (bar)	uptake (cm3(STP)/g)
0.0939935	62.7854
0.225585	196.347
0.492526	305.936
0.759467	340.183
1.01889	355.023
1.95882	368.721
