Adsorption isotherm of Krypton on MOF-74-Ni
DOI: 10.1021/Jp501495f
Adsorbate Krypton: InChIKey DNNSSWSSYDEUBZ-UHFFFAOYSA-N
Temperature: 292 K
Tabular data in the source: 0
pressure (bar)	uptake (cm3(STP)/g)
0.0597132	1.76069
0.0839783	2.36968
0.111974	3.11422
0.125022	3.72471
0.149295	4.19764
0.164221	4.67183
0.190344	5.48465
0.210879	5.95808
0.265	7.44741
0.304196	8.46256
0.363917	10.0872
0.404974	11.2381
0.460965	12.7272
0.513229	14.0127
0.561756	15.2987
0.608425	16.3809
0.662547	17.8702
0.711077	19.0882
0.748407	20.0356
0.780142	20.7796
0.813737	21.6594
0.83988	22.1321
0.85295	22.4025
0.873484	22.8759
0.884684	23.1465
0.92014	24.1622
0.936949	24.432
0.950027	24.5663
0.961223	24.9049
0.970553	25.1758
0.987352	25.5817
1.0023	25.7838
