Adsorption isotherm of Nitrogen on Zn-MOF-74
DOI: 10.1021/Jp501495f
Adsorbate Nitrogen: InChIKey IJGRMHOSHXDMSA-UHFFFAOYSA-N
Temperature: 292 K
Tabular data in the source: 0
pressure (bar)	uptake (cm3(STP)/g)
0.0683527	0.575942
0.0797549	0.805418
0.1443	1.20952
0.189853	1.38372
0.205036	1.44178
0.260089	1.78814
0.30186	2.13375
0.356913	2.48011
0.404372	2.76883
0.457527	3.11508
0.508789	3.51843
0.556244	3.74994
0.607506	4.15329
0.662559	4.49965
0.717616	4.90322
0.75749	5.24872
0.785965	5.42195
0.81824	5.65261
0.835321	5.71078
0.848612	5.82594
0.877091	6.05639
0.892272	6.05724
0.926444	6.28801
0.941627	6.34607
0.954914	6.40403
0.972009	6.63383
0.985301	6.74899
1.00429	6.9789
