Adsorption isotherm of Radon on CuBTC
DOI: 10.1021/Jp501495f
Adsorbate Radon: InChIKey SYUHGPGVQRZVTB-UHFFFAOYSA-N
Temperature: 292 K
Tabular data in the source: 0
pressure (bar)	uptake (cm3(STP)/g)
0.101513	45.6621
0.229344	121.005
0.488766	196.347
0.751948	220.32
1.00761	229.452
1.95507	239.726
