Adsorption isotherm of Krypton on Zn-MOF-74
DOI: 10.1021/Jp501495f
Adsorbate Krypton: InChIKey DNNSSWSSYDEUBZ-UHFFFAOYSA-N
Temperature: 292 K
Tabular data in the source: 0
pressure (bar)	uptake (cm3(STP)/g)
0.0149347	0.338131
0.0261388	0.540708
0.0541387	1.21722
0.0858817	1.8252
0.119468	2.8411
0.25575	5.88403
0.367745	8.6581
0.414406	9.87633
0.543222	12.7162
0.629082	14.8815
0.754143	17.994
0.890424	21.0369
0.993088	23.5401
