Adsorption isotherm of Radon on NOTT-102
DOI: 10.1021/Jp501495f
Adsorbate Radon: InChIKey SYUHGPGVQRZVTB-UHFFFAOYSA-N
Temperature: 292 K
Tabular data in the source: 0
pressure (bar)	uptake (cm3(STP)/g)
0.105273	70.7763
0.2895	190.639
0.500045	335.616
0.766987	390.411
0.988811	409.817
1.6618	444.064
1.98138	452.055
