Adsorption isotherm of Nitrogen on CuBTC
DOI: 10.1021/Jp501495f
Adsorbate Nitrogen: InChIKey IJGRMHOSHXDMSA-UHFFFAOYSA-N
Temperature: 292 K
Tabular data in the source: 0
pressure (bar)	uptake (cm3(STP)/g)
0.148002	1.50369
0.168875	1.60247
0.218209	2.09288
0.244774	2.35444
0.261851	2.58291
0.313083	3.04096
0.358623	3.53111
0.415546	3.98952
0.462983	4.4798
0.514215	4.87288
0.569242	5.39613
0.620474	5.85417
0.666012	6.14943
0.719142	6.64008
0.757091	7.06478
0.793144	7.32695
0.823503	7.58876
0.842478	7.75239
0.86335	7.91614
0.88612	8.14498
0.906991	8.27625
0.927863	8.50497
0.939248	8.53818
0.952531	8.66896
0.99048	9.0287
