Adsorption isotherm of Nitrogen on NOTT-101
DOI: 10.1021/Jp501495f
Adsorbate Nitrogen: InChIKey IJGRMHOSHXDMSA-UHFFFAOYSA-N
Temperature: 292 K
Tabular data in the source: 0
pressure (bar)	uptake (cm3(STP)/g)
0.100566	0.753548
0.129028	0.982751
0.153695	1.11426
0.176465	1.31062
0.208722	1.57255
0.263749	1.9009
0.31498	2.26149
0.358623	2.6216
0.415546	3.01504
0.461085	3.31031
0.51042	3.67078
0.567344	4.0967
0.616678	4.45717
0.666012	4.78516
0.715347	5.11315
0.749501	5.31024
0.787451	5.57253
0.823503	5.76974
0.844375	5.90101
0.857657	5.9993
0.882325	6.19578
0.895607	6.2616
0.918376	6.36051
0.931659	6.49129
0.941146	6.52438
0.958223	6.62292
0.980993	6.78679
