Adsorption isotherm of Krypton on PCN-14
DOI: 10.1021/Jp501495f
Adsorbate Krypton: InChIKey DNNSSWSSYDEUBZ-UHFFFAOYSA-N
Temperature: 292 K
Tabular data in the source: 0
pressure (bar)	uptake (cm3(STP)/g)
0.0622667	1.77245
0.0849092	2.90309
0.103778	3.38618
0.130195	4.51622
0.141516	5.00052
0.160384	5.48361
0.188687	6.61334
0.216991	7.09493
0.258501	8.70866
0.313221	10.4823
0.354732	12.2581
0.411338	13.8694
0.466058	15.319
0.515116	16.9315
0.564175	18.22
0.61512	19.8322
0.667953	21.2821
0.70569	22.5723
0.750975	23.5373
0.783052	24.5044
0.815128	25.6335
0.839658	26.1157
0.860413	26.7606
0.879282	27.2436
0.890603	27.5659
0.924567	28.5327
0.934002	28.8553
0.949096	29.1769
0.960417	29.4992
0.971739	29.8215
0.994381	30.628
1.00948	30.9497
