Adsorption isotherm of Krypton on NOTT-100
DOI: 10.1021/Jp501495f
Adsorbate Krypton: InChIKey DNNSSWSSYDEUBZ-UHFFFAOYSA-N
Temperature: 292 K
Tabular data in the source: 0
pressure (bar)	uptake (cm3(STP)/g)
0.175479	8.72194
0.354732	18.2535
0.533985	27.2989
0.754749	37.958
0.873621	43.4483
1.00004	49.4234
