Adsorption isotherm of Nitrogen on MOF-74-Ni
DOI: 10.1021/Jp501495f
Adsorbate Nitrogen: InChIKey IJGRMHOSHXDMSA-UHFFFAOYSA-N
Temperature: 292 K
Tabular data in the source: 0
pressure (bar)	uptake (cm3(STP)/g)
0.0683397	0.404316
0.113906	0.750138
0.180343	1.09714
0.231606	1.50049
0.298043	1.84749
0.353092	2.13664
0.408145	2.483
0.461296	2.77204
0.522042	3.11872
0.567598	3.35012
0.622651	3.69648
0.681495	3.98585
0.746036	4.33274
0.770715	4.50576
0.82197	4.79469
0.875116	5.02653
0.924476	5.37256
0.983329	5.77634
