Adsorption isotherm of Krypton on MOF-74-Mg
DOI: 10.1021/Jp501495f
Adsorbate Krypton: InChIKey DNNSSWSSYDEUBZ-UHFFFAOYSA-N
Temperature: 292 K
Tabular data in the source: 0
pressure (bar)	uptake (cm3(STP)/g)
0.125073	2.90838
0.244521	6.08962
0.414393	10.0804
0.535732	12.9213
0.642139	15.356
0.709355	16.7075
0.763473	18.2648
0.873599	21.0392
0.929594	22.4602
0.979989	23.746
