Adsorption isotherm of Argon on NOTT-103
DOI: 10.1021/Jp501495f
Adsorbate Argon: InChIKey XKRFYHLGVUSROY-UHFFFAOYSA-N
Temperature: 292 K
Tabular data in the source: 0
pressure (bar)	uptake (cm3(STP)/g)
0.0563519	0.42735
0.0810111	0.555556
0.103905	0.726496
0.126801	0.854701
0.144408	1.02564
0.17435	1.19658
0.184915	1.28205
0.206054	1.36752
0.251844	1.66667
0.309962	2.05128
0.35751	2.39316
0.410342	2.77778
0.461415	3.11966
0.508971	3.37607
0.561803	3.76068
0.60935	4.10256
0.660427	4.40171
0.709746	4.65812
0.759056	5
0.783708	5.21368
0.810126	5.38462
0.834781	5.55556
0.854146	5.76923
0.877043	5.89744
0.891133	5.98291
0.924596	6.19658
0.936923	6.28205
0.947485	6.41026
0.961567	6.5812
0.968612	6.62393
0.97917	6.79487
0.986219	6.79487
0.995019	6.92308
1.00382	7.00855
