Adsorption isotherm of Krypton on PCN-14
DOI: 10.1021/Jp501495f
Adsorbate Krypton: InChIKey DNNSSWSSYDEUBZ-UHFFFAOYSA-N
Temperature: 292 K
Tabular data in the source: 0
pressure (bar)	uptake (cm3(STP)/g)
0.0113212	1.45652
0.0245294	2.75071
0.0490586	5.17734
0.0773617	7.60337
0.109438	11.1631
0.249067	21.9972
0.539645	40.0989
0.764183	51.8917
1.0057	63.8438
