Adsorption isotherm of Krypton on MOF-74-Ni
DOI: 10.1021/Jp501495f
Adsorbate Krypton: InChIKey DNNSSWSSYDEUBZ-UHFFFAOYSA-N
Temperature: 292 K
Tabular data in the source: 0
pressure (bar)	uptake (cm3(STP)/g)
0.0578988	0.876579
0.117633	2.29713
0.240845	5.0697
0.364087	7.36608
0.541471	10.8116
0.6423	12.7709
0.758055	15.2043
0.892484	17.9754
0.998904	20.206
