Adsorption isotherm of Argon on Zn-MOF-74
DOI: 10.1021/Jp501495f
Adsorbate Argon: InChIKey XKRFYHLGVUSROY-UHFFFAOYSA-N
Temperature: 292 K
Tabular data in the source: 0
pressure (bar)	uptake (cm3(STP)/g)
0.00975773	0.100595
0.0260315	0.201319
0.0520761	0.322317
0.0764818	0.503524
0.102511	0.724923
0.244065	1.77191
0.488138	3.48357
0.761508	5.35646
0.97629	6.88682
