Adsorption isotherm of Argon on PCN-14
DOI: 10.1021/Jp501495f
Adsorbate Argon: InChIKey XKRFYHLGVUSROY-UHFFFAOYSA-N
Temperature: 292 K
Tabular data in the source: 0
pressure (bar)	uptake (cm3(STP)/g)
0.0669061	0.641026
0.0915539	0.897436
0.116202	1.15385
0.146132	1.45299
0.17255	1.62393
0.191915	1.83761
0.214801	2.09402
0.257051	2.5641
0.311626	3.16239
0.36093	3.58974
0.411987	4.10256
0.46129	4.52991
0.507062	5.04274
0.561636	5.64103
0.614453	6.19658
0.660232	6.62393
0.707765	7.13675
0.755302	7.60684
0.781705	7.94872
0.811636	8.24786
0.832774	8.33333
0.850377	8.54701
0.873258	8.84615
0.890866	9.01709
0.904952	9.1453
0.922558	9.31624
0.93664	9.48718
0.950726	9.61538
0.966572	9.78632
0.982416	9.95726
0.994732	10.1709
1.00705	10.3419
1.01058	10.2991
