Adsorption isotherm of Radon on NOTT-102
DOI: 10.1021/Jp501495f
Adsorbate Radon: InChIKey SYUHGPGVQRZVTB-UHFFFAOYSA-N
Temperature: 292 K
Tabular data in the source: 0
pressure (bar)	uptake (cm3(STP)/g)
0.0992334	68.8372
0.206901	140.932
0.30521	204.939
0.501823	335.366
