Adsorption isotherm of Xenon on PCN-14
DOI: 10.1021/Jp501495f
Adsorbate Xenon: InChIKey FHNFHKCVQCLJFQ-UHFFFAOYSA-N
Temperature: 292 K
Tabular data in the source: 0
pressure (bar)	uptake (cm3(STP)/g)
0.160984	33.2564
0.178029	36.9515
0.200756	40.1848
0.261362	48.9607
0.297346	55.8891
0.356058	65.5889
0.403406	72.0554
0.458329	80.3695
0.507572	89.1455
0.556814	95.1501
0.606056	102.54
0.668555	111.316
0.70454	118.245
0.755676	125.635
0.780297	129.33
0.806812	132.564
0.831433	135.797
0.861736	139.954
0.880675	141.801
0.892039	144.111
0.922341	147.344
0.941281	149.192
0.952644	150.577
0.964008	152.887
0.977265	155.196
0.990523	157.044
1.00757	159.815
