Adsorption isotherm of Nitrogen on CuBTC
DOI: 10.1021/Jp501495f
Adsorbate Nitrogen: InChIKey IJGRMHOSHXDMSA-UHFFFAOYSA-N
Temperature: 292 K
Tabular data in the source: 0
pressure (bar)	uptake (cm3(STP)/g)
0.153695	1.40661
0.237184	2.28899
0.360519	3.56372
0.489548	4.80633
0.618576	6.01646
0.740014	7.12865
0.87094	8.24146
0.994275	9.35377
