Adsorption isotherm of Argon on MOF-74-Co
DOI: 10.1021/Jp501495f
Adsorbate Argon: InChIKey XKRFYHLGVUSROY-UHFFFAOYSA-N
Temperature: 292 K
Tabular data in the source: 0
pressure (bar)	uptake (cm3(STP)/g)
0.190411	1.12827
0.328737	1.99447
0.43125	2.69931
0.489836	3.06192
0.537021	3.40422
0.58585	3.66623
0.639558	3.9685
0.707905	4.41162
0.7616	4.79421
0.812054	5.07633
0.872265	5.45905
0.93248	5.82169
0.986185	6.14404
