Adsorption isotherm of Nitrogen on NOTT-102
DOI: 10.1021/Jp501495f
Adsorbate Nitrogen: InChIKey IJGRMHOSHXDMSA-UHFFFAOYSA-N
Temperature: 292 K
Tabular data in the source: 0
pressure (bar)	uptake (cm3(STP)/g)
0.123336	1.43714
0.233389	2.61357
0.366212	4.21374
0.426931	4.99721
0.480061	5.52034
0.573036	6.50078
0.631859	7.28413
0.681193	7.87198
0.747604	8.65582
0.850067	9.92921
0.96771	11.3335
