Adsorption isotherm of Argon on NOTT-102
DOI: 10.1021/Jp501495f
Adsorbate Argon: InChIKey XKRFYHLGVUSROY-UHFFFAOYSA-N
Temperature: 292 K
Tabular data in the source: 0
pressure (bar)	uptake (cm3(STP)/g)
0.170728	2.30769
0.241113	3.46154
0.357277	5.04274
0.478709	6.83761
0.619536	8.50427
0.790286	10.5556
0.895892	11.9658
0.9751	12.9915
