Adsorption isotherm of Krypton on CuBTC
DOI: 10.1021/Jp501495f
Adsorbate Krypton: InChIKey DNNSSWSSYDEUBZ-UHFFFAOYSA-N
Temperature: 292 K
Tabular data in the source: 0
pressure (bar)	uptake (cm3(STP)/g)
0.131731	3.89791
0.188184	5.68445
0.208888	6.17169
0.263465	7.63341
0.30299	8.60789
0.353806	9.90719
0.404622	11.2065
0.464846	12.8306
0.517541	14.2923
0.564585	15.7541
0.619168	17.0534
0.666217	18.3527
0.709504	19.4896
0.752795	20.464
0.782907	21.2761
0.809266	21.6009
0.831849	22.2506
0.852553	22.7378
0.87326	23.0626
0.886436	23.3875
0.920319	24.0371
0.939143	24.3619
0.952318	24.6868
0.965498	24.8492
0.974906	25.174
0.991847	25.4988
1.00503	25.6613
