Adsorption isotherm of Radon on Zn-MOF-74
DOI: 10.1021/Jp501495f
Adsorbate Radon: InChIKey SYUHGPGVQRZVTB-UHFFFAOYSA-N
Temperature: 292 K
Tabular data in the source: 0
pressure (bar)	uptake (cm3(STP)/g)
0.015039	4.56621
0.0300779	18.2648
0.0563961	50.2283
0.0827143	86.758
0.109033	115.297
0.203026	142.694
0.477487	160.959
0.778266	173.516
1.01889	180.365
1.40238	189.498
1.64676	196.347
2.00019	200.913
