Adsorption isotherm of Argon on NOTT-101
DOI: 10.1021/Jp501495f
Adsorbate Argon: InChIKey XKRFYHLGVUSROY-UHFFFAOYSA-N
Temperature: 292 K
Tabular data in the source: 0
pressure (bar)	uptake (cm3(STP)/g)
0.158475	1.36752
0.186648	1.62393
0.209544	1.75214
0.262372	2.17949
0.304627	2.60684
0.360978	3.03419
0.406765	3.37607
0.459592	3.80342
0.514182	4.23077
0.565248	4.65812
0.611033	5
0.662099	5.42735
0.718444	5.94017
0.755427	6.19658
0.785357	6.49573
0.810016	6.62393
0.834668	6.83761
0.854041	6.96581
0.875164	7.22222
0.89102	7.26496
0.922713	7.5641
0.931523	7.5641
0.942097	7.5641
0.954425	7.64957
0.968518	7.69231
0.977325	7.73504
0.987894	7.77778
1.00726	7.99145
