Adsorption isotherm of Radon on NOTT-100
DOI: 10.1021/Jp501495f
Adsorbate Radon: InChIKey SYUHGPGVQRZVTB-UHFFFAOYSA-N
Temperature: 292 K
Tabular data in the source: 0
pressure (bar)	uptake (cm3(STP)/g)
0.0094796	25.615
0.026584	84.842
0.0484032	148.876
0.0691545	172.109
0.10493	190.566
0.208393	213.129
0.364449	221.375
0.500764	229.591
