Adsorption isotherm of Radon on NOTT-101
DOI: 10.1021/Jp501495f
Adsorbate Radon: InChIKey SYUHGPGVQRZVTB-UHFFFAOYSA-N
Temperature: 292 K
Tabular data in the source: 0
pressure (bar)	uptake (cm3(STP)/g)
0.028301	32.8447
0.0574867	48.0908
0.0913696	62.5443
0.219615	194.747
0.354202	250.959
0.487852	307.97
