Adsorption isotherm of Radon on MOF-74-Zn
DOI: 10.1021/Jp501495f
Adsorbate Radon: InChIKey SYUHGPGVQRZVTB-UHFFFAOYSA-N
Temperature: 292 K
Tabular data in the source: 0
pressure (bar)	uptake (cm3(STP)/g)
0.00655721	3.24839
0.024345	15.3974
0.0523822	50.1154
0.0719758	84.7932
0.105663	113.104
0.201271	140.905
0.369165	154.573
0.482655	164.765
