Adsorption isotherm of Xenon on CuBTC
DOI: 10.1021/Jp501495f
Adsorbate Xenon: InChIKey FHNFHKCVQCLJFQ-UHFFFAOYSA-N
Temperature: 292 K
Tabular data in the source: 0
pressure (bar)	uptake (cm3(STP)/g)
0.104166	19.3995
0.229165	31.4088
0.357952	40.6467
0.482951	49.8845
0.613631	58.1986
0.749994	67.4365
0.880675	76.2125
1.00378	84.9885
