Adsorption isotherm of Xenon on MOF-74-Co
DOI: 10.1021/Jp501495f
Adsorbate Xenon: InChIKey FHNFHKCVQCLJFQ-UHFFFAOYSA-N
Temperature: 292 K
Tabular data in the source: 0
pressure (bar)	uptake (cm3(STP)/g)
0.00678895	3.19363
0.0271558	8.30643
0.064495	18.8501
0.0746783	22.6831
0.108623	30.9917
0.122201	35.464
0.144266	43.4497
0.161237	48.8806
0.186696	54.6333
0.203668	59.1067
0.252888	69.0158
0.30041	79.8819
0.35642	87.2399
0.409034	94.5969
0.461648	100.039
0.512566	105.8
0.556694	109.324
0.604216	112.85
0.655133	116.377
0.707747	119.585
0.751876	122.152
0.780728	124.395
0.812976	126.32
0.831646	126.964
0.85371	128.567
0.87238	129.53
0.887655	129.854
0.918205	131.14
0.931783	132.102
0.947057	132.745
0.962333	133.388
0.979305	134.351
0.989488	134.993
1.00476	135.955
