Adsorption isotherm of Krypton on MOF-74-Co
DOI: 10.1021/Jp501495f
Adsorbate Krypton: InChIKey DNNSSWSSYDEUBZ-UHFFFAOYSA-N
Temperature: 292 K
Tabular data in the source: 0
pressure (bar)	uptake (cm3(STP)/g)
0.0784419	1.21396
0.184858	3.51259
0.257679	4.93139
0.423855	8.24241
0.550831	10.6063
0.651656	12.6336
0.767415	14.999
0.95226	18.7157
