Adsorption isotherm of Krypton on CuBTC
DOI: 10.1021/Jp501495f
Adsorbate Krypton: InChIKey DNNSSWSSYDEUBZ-UHFFFAOYSA-N
Temperature: 292 K
Tabular data in the source: 0
pressure (bar)	uptake (cm3(STP)/g)
0.0603799	4.04127
0.088683	5.171
0.218877	10.9835
0.303787	13.5625
0.418886	17.1089
0.486813	19.3666
0.620781	22.5859
0.747201	25.6444
0.875509	28.8646
1.00004	31.5993
