Adsorption isotherm of Nitrogen on NOTT-103
DOI: 10.1021/Jp501495f
Adsorbate Nitrogen: InChIKey IJGRMHOSHXDMSA-UHFFFAOYSA-N
Temperature: 292 K
Tabular data in the source: 0
pressure (bar)	uptake (cm3(STP)/g)
0.0740014	0.81681
0.108156	1.17631
0.246672	2.90677
0.351032	4.01787
0.474368	5.48749
0.535087	6.17352
0.658423	7.70811
0.732424	8.62237
0.823503	9.53772
0.927863	10.6813
0.996173	11.3678
