Adsorption isotherm of Xenon on NOTT-100
DOI: 10.1021/Jp501495f
Adsorbate Xenon: InChIKey FHNFHKCVQCLJFQ-UHFFFAOYSA-N
Temperature: 292 K
Tabular data in the source: 0
pressure (bar)	uptake (cm3(STP)/g)
0.100378	24.4804
0.119317	29.5612
0.143938	34.1801
0.164772	37.8753
0.185605	41.1085
0.196969	45.2656
0.255679	55.8891
0.306816	64.6651
0.356058	72.5173
0.407194	79.9076
0.452648	85.9122
0.499996	91.9169
0.562496	98.8453
0.672343	109.007
0.721586	114.55
0.749994	116.859
0.784085	119.63
0.806812	121.94
0.837115	123.326
0.861736	125.173
0.880675	127.021
0.893933	128.406
0.91666	130.254
0.931811	131.178
0.941281	131.64
0.956432	133.487
0.965902	134.873
0.981053	136.721
0.992417	137.644
1.00567	139.03
