Adsorption isotherm of Xenon on NOTT-102
DOI: 10.1021/Jp501495f
Adsorbate Xenon: InChIKey FHNFHKCVQCLJFQ-UHFFFAOYSA-N
Temperature: 292 K
Tabular data in the source: 0
pressure (bar)	uptake (cm3(STP)/g)
0.153408	28.6374
0.352271	52.6559
0.532193	71.1316
0.755676	92.3788
0.992417	115.473
