Adsorption isotherm of Argon on CuBTC
DOI: 10.1021/Jp501495f
Adsorbate Argon: InChIKey XKRFYHLGVUSROY-UHFFFAOYSA-N
Temperature: 292 K
Tabular data in the source: 0
pressure (bar)	uptake (cm3(STP)/g)
0.220016	2.90598
0.299242	3.71795
0.480558	5.8547
0.744631	8.71795
0.871384	10.1282
0.998155	11.3248
