Adsorption isotherm of Radon on MOF-74-Ni
DOI: 10.1021/Jp501495f
Adsorbate Radon: InChIKey SYUHGPGVQRZVTB-UHFFFAOYSA-N
Temperature: 292 K
Tabular data in the source: 0
pressure (bar)	uptake (cm3(STP)/g)
0.0290534	9.78985
0.0533908	27.6001
0.073002	56.6479
0.0879827	66.3708
0.107604	92.2015
0.212551	133.72
0.341053	143.984
0.501446	156.008
