Adsorption isotherm of Argon on Mg-MOF-74
DOI: 10.1021/Jp501495f
Adsorbate Argon: InChIKey XKRFYHLGVUSROY-UHFFFAOYSA-N
Temperature: 292 K
Tabular data in the source: 0
pressure (bar)	uptake (cm3(STP)/g)
0.0569337	0.503136
0.0780749	0.724439
0.10898	1.00618
0.25374	2.37451
0.476536	4.70824
0.762836	7.20387
0.977526	9.29648
