Adsorption isotherm of Radon on MOF-74-Co
DOI: 10.1021/Jp501495f
Adsorbate Radon: InChIKey SYUHGPGVQRZVTB-UHFFFAOYSA-N
Temperature: 292 K
Tabular data in the source: 0
pressure (bar)	uptake (cm3(STP)/g)
0.0639156	35.3881
0.0939935	66.21
0.229344	139.269
0.627877	164.384
1.01513	176.941
1.73325	187.215
