Adsorption isotherm of Xenon on NOTT-100
DOI: 10.1021/Jp501495f
Adsorbate Xenon: InChIKey FHNFHKCVQCLJFQ-UHFFFAOYSA-N
Temperature: 292 K
Tabular data in the source: 0
pressure (bar)	uptake (cm3(STP)/g)
0.0719691	24.0185
0.113636	38.3372
0.214014	70.6697
0.348482	98.8453
0.528405	135.797
0.742418	155.658
0.948857	167.667
