Adsorption isotherm of Argon on MOF-74-Ni
DOI: 10.1021/Jp501495f
Adsorbate Argon: InChIKey XKRFYHLGVUSROY-UHFFFAOYSA-N
Temperature: 292 K
Tabular data in the source: 0
pressure (bar)	uptake (cm3(STP)/g)
0.144825	0.966726
0.209924	1.34954
0.265248	1.73216
0.305917	2.07434
0.356361	2.4167
0.410063	2.75913
0.455623	3.08132
0.504438	3.42365
0.556508	3.78613
0.611839	4.12859
0.663912	4.47099
0.712726	4.81332
0.746896	5.05496
0.785944	5.35694
0.810353	5.51807
0.834752	5.73943
0.875432	6.02137
0.885186	6.14204
0.925865	6.42397
0.943755	6.60505
0.968151	6.8465
0.997434	7.08804
