Adsorption isotherm of Nitrogen on FM-diatomite prepared at pH 4
DOI: 10.1007/s10934-016-0296-7
Article source: Figure 4
Adsorbate Nitrogen: InChIKey IJGRMHOSHXDMSA-UHFFFAOYSA-N
Kind: experiment
Temperature: 77 K
Tabular data in the source: 0
pressure (bar)	uptake (cm3(STP)/g)
0.007711	0.764
0.01993	1.627
0.031765	1.992
0.046801	2.523
0.069163	2.855
0.088526	3.353
0.103927	2.654
0.110138	4.083
0.125164	3.218
0.130058	4.248
0.145084	3.517
0.149786	4.347
0.165572	3.716
0.171591	4.679
0.186617	3.781
0.191885	4.645
0.206162	3.781
0.210671	4.91
0.225889	4.312
0.231158	5.441
0.246934	4.344
0.252953	5.44
0.266479	4.576
0.272873	5.639
0.287342	5.007
0.293553	5.904
0.307637	4.874
0.313655	5.538
0.347852	5.404
0.353678	5.968
0.379424	6.034
0.384501	6.067
0.424716	6.298
0.463806	6.762
0.505703	6.86
0.507983	12.043
0.545736	7.191
0.54914	12.407
0.587076	7.589
0.589173	12.638
0.626916	7.92
0.629196	12.936
0.667698	8.483
0.669978	13.267
0.708481	8.88
0.710943	13.565
0.749821	9.71
0.751908	14.394
0.790785	10.24
0.792873	14.625
0.831386	11.335
0.833473	15.521
0.872918	12.928
0.874438	16.583
0.902241	14.721
0.904885	17.811
0.932506	16.88
0.934208	19.836
0.952436	19.072
0.954888	21.729
0.960157	22.859
0.965031	20.002
0.970684	24.619
0.976126	21.995
0.982164	27.21
0.985721	24.386
0.991952	31.462
0.997201	29.004
1.00244	62.373
