Adsorption isotherm of Nitrogen on FM-diatomite prepared at pH 6
DOI: 10.1007/s10934-016-0296-7
Article source: Figure 4
Adsorbate Nitrogen: InChIKey IJGRMHOSHXDMSA-UHFFFAOYSA-N
Kind: experiment
Temperature: 77 K
Tabular data in the source: 0
pressure (bar)	uptake (cm3(STP)/g)
0.005076	0.468
0.018806	1.169
0.03141	1.504
0.045129	1.771
0.066184	1.772
0.086307	2.006
0.110179	2.608
0.130859	2.675
0.150607	2.876
0.172036	3.345
0.191024	3.546
0.211512	3.713
0.232192	3.814
0.251747	4.315
0.272052	4.316
0.292925	4.517
0.313787	4.551
0.349504	4.92
0.381278	5.288
0.425273	5.824
0.464384	6.626
0.505551	6.427
0.507466	10.835
0.547286	6.93
0.548269	11.203
0.587511	7.265
0.589436	11.672
0.628689	7.934
0.629864	12.441
0.667982	8.236
0.670475	12.977
0.709909	9.038
0.711267	13.479
0.749962	9.941
0.752627	14.082
0.784787	14.917
0.789448	10.844
0.825772	15.887
0.833068	12.014
0.867335	17.357
0.870679	13.685
0.902687	19.162
0.903406	15.556
0.932415	21.633
0.933134	18.061
0.953652	20.833
0.953865	23.871
0.961211	25.174
0.965132	22.302
0.970816	27.344
0.976044	24.106
0.981931	30.216
0.98566	26.777
0.992844	30.584
0.996461	35.525
1.00503	47.713
1.00538	44.741
