Adsorption isotherm of Nitrogen on raw diatomite
DOI: 10.1007/s10934-016-0296-7
Article source: Figure 4
Adsorbate Nitrogen: InChIKey IJGRMHOSHXDMSA-UHFFFAOYSA-N
Kind: experiment
Temperature: 77 K
Tabular data in the source: 0
pressure (bar)	uptake (cm3(STP)/g)
0.008643	0.403
0.018613	1.006
0.02989	1.643
0.048686	1.914
0.067481	2.52
0.093612	2.592
0.112033	2.996
0.130453	3
0.150373	3.672
0.169736	3.743
0.189474	4.014
0.212778	4.386
0.233458	4.691
0.251686	4.795
0.271981	4.933
0.292469	5.271
0.356758	5.818
0.382687	6.024
0.425921	6.233
0.464829	7.009
0.507497	7.519
0.507892	11.763
0.545655	8.028
0.548117	12.673
0.587775	13.182
0.588504	8.437
0.627605	8.879
0.629317	13.658
0.670079	9.356
0.670667	14.101
0.707863	10.165
0.711267	14.477
0.749962	10.942
0.752242	15.053
0.786641	15.427
0.788121	11.752
0.830058	16.271
0.830788	12.562
0.873647	14.241
0.874225	17.316
0.901673	18.123
0.902788	15.383
0.93589	19.901
0.936062	17.061
0.953551	18.468
0.954128	21.475
0.965973	22.547
0.966905	20.041
0.973309	23.818
0.974991	21.58
0.981779	25.591
0.984019	23.219
0.989115	27.263
0.996643	29.871
0.997008	27.399
1.00172	30.574
1.00418	35.053
