Adsorption isotherm of Nitrogen on FM-diatomite prepared at pH 9
DOI: 10.1007/s10934-016-0296-7
Article source: Figure 4
Adsorbate Nitrogen: InChIKey IJGRMHOSHXDMSA-UHFFFAOYSA-N
Kind: experiment
Temperature: 77 K
Tabular data in the source: 0
pressure (bar)	uptake (cm3(STP)/g)
0.00846	0.529
0.018603	1.256
0.030437	1.652
0.046598	1.949
0.068028	2.113
0.089073	2.245
0.110685	2.343
0.13173	2.508
0.152775	2.607
0.173627	2.936
0.193365	3.134
0.213842	3.266
0.234705	3.397
0.25425	3.628
0.274545	3.76
0.294647	3.858
0.31476	3.957
0.349139	4.22
0.380711	4.55
0.427127	4.945
0.46791	5.572
0.50549	5.438
0.509057	9.636
0.545705	5.767
0.548897	9.966
0.587045	6.262
0.589669	10.394
0.628567	6.426
0.630634	10.723
0.668975	7.019
0.671792	11.416
0.70994	7.58
0.713132	11.778
0.750155	8.207
0.752779	12.438
0.790745	9.065
0.793937	13.197
0.827383	14.188
0.831142	10.287
0.868156	15.377
0.872675	11.608
0.903862	13.491
0.907064	16.731
0.9328	15.54
0.936184	18.912
0.954787	18.151
0.959863	21.555
0.974525	24.795
0.976207	21.852
0.9841	27.108
0.986734	24.926
0.996127	32.298
0.997444	29.356
1.00252	35.471
1.00402	55.273
1.00421	51.637
