Adsorption isotherm of Carbon Dioxide on C36H24Cu3N13O12
DOI: 10.1021/acs.inorgchem.5b00561
Article source: Figure 5d
Adsorbate Carbon Dioxide: InChIKey CURLTUGMZLYLDI-UHFFFAOYSA-N
Kind: experiment
Temperature: 313 K
Tabular data in the source: 0
pressure (bar)	uptake (cm3(STP)/g)
0	0
0.001786	0.000627
0.005566	0.3386
0.008929	0.529449
0.009276	0.677201
0.012987	1.0158
0.025	2.46491
0.025974	2.59594
0.027829	1.80587
0.048214	4.9292
0.050093	5.19187
0.051786	3.52694
0.051948	3.83747
0.074211	7.44921
0.075	7.39474
0.076067	5.41761
0.076786	5.46554
0.098214	9.50815
0.102041	7.22348
0.103571	7.22932
0.103896	9.59368
0.125	8.64035
0.12616	8.80361
0.126786	11.7989
0.15	13.9123
0.150278	13.9955
0.151786	10.5796
0.152134	10.6095
0.176252	16.3657
0.176786	12.3427
0.178108	12.4153
0.201786	14.1059
0.202226	13.9955
0.225	21.307
0.226345	21.3318
0.226786	15.6936
0.2282	15.8014
0.25	17.6316
0.250464	23.702
0.252319	17.4944
0.275	26.5877
0.276438	19.3002
0.276786	19.3954
0.3	21.3333
0.300557	21.1061
0.301786	28.8778
0.302412	28.781
0.325	30.8158
0.326531	23.3634
0.348214	31.7011
0.350649	31.4898
0.351786	25.7375
0.352505	25.8465
0.374768	28.4424
0.376623	32.8442
0.376786	33.2901
0.401786	34.1761
0.402597	31.9413
0.403571	32.2469
0.425	35.2368
0.426716	33.9729
0.426786	34.1848
0.44898	35.7788
0.451786	35.2462
0.45269	34.8758
0.453571	36.1241
0.475	36.1316
0.476786	37.0094
0.476809	36.5688
0.478664	35.7788
0.5	37.8947
0.500928	37.4718
0.501786	37.0182
0.502783	36.7946
0.526786	37.9041
0.526902	38.2619
0.528757	37.5847
0.549165	39.0519
0.55	38.9649
0.554731	38.4876
0.576994	39.842
0.602968	39.9549
0.625232	41.0835
0.627087	40.7449
0.651206	41.8736
0.653061	41.535
0.675325	41.9865
0.701299	42.6637
0.703154	43.1151
0.725417	43.3409
0.727273	43.7923
0.751391	44.2438
0.77551	44.6953
0.777365	44.4695
0.801484	44.921
0.827458	45.7111
0.855288	46.0497
0.875696	46.614
0.877551	46.5011
0.90167	46.9526
0.903525	47.1783
0.925788	47.4041
0.927644	47.6298
0.949907	47.8555
0.951763	47.9684
0.975881	48.1941
0.994434	48.6456
1	48.5327
