Adsorption isotherm of Carbon Dioxide on C36H24Cu3N13O12
DOI: 10.1021/acs.inorgchem.5b00561
Article source: Figure 6b
Adsorbate Carbon Dioxide: InChIKey CURLTUGMZLYLDI-UHFFFAOYSA-N
Kind: experiment
Temperature: 273 K
Tabular data in the source: 0
pressure (bar)	uptake (cm3(STP)/g)
0.002144	0.23622
0.004632	1.88976
0.004838	3.30709
0.011545	4.48819
0.011785	6.14173
0.027791	11.3386
0.029798	10.1575
0.054929	18.189
0.057794	22.9134
0.079958	25.5118
0.085997	37.0866
0.105502	36.378
0.108504	42.0472
0.132846	44.6457
0.133018	45.8268
0.15971	49.6063
0.163965	48.8976
0.188513	52.9134
0.192768	52.2047
0.208327	54.3307
0.212856	55.5118
0.234745	56.2205
0.239274	57.4016
0.263376	58.3465
0.263479	59.0551
0.285334	59.5276
0.285506	60.7087
0.311753	61.4173
0.311856	62.126
0.338205	63.5433
0.340281	62.8346
0.364418	64.0157
0.364521	64.7244
0.388657	65.9055
0.390699	64.9606
0.41276	66.8504
0.419227	66.378
0.434649	67.5591
0.441151	67.3228
0.458717	68.2677
0.467432	68.2677
0.487177	69.2126
0.493713	69.2126
0.511245	69.9213
0.519925	69.685
0.53967	70.6299
0.544028	70.6299
0.559381	71.3386
0.570274	71.3386
0.587772	71.811
0.596487	71.811
0.609662	72.5197
0.620555	72.5197
0.638053	72.9921
0.646767	72.9921
0.659908	73.4646
0.668622	73.4646
0.686154	74.1732
0.694835	73.937
0.714545	74.6457
0.718868	74.4094
0.736366	74.8819
0.745081	74.8819
0.7604	75.3543
0.771293	75.3543
0.788791	75.8268
0.795327	75.8268
0.808468	76.2992
0.821539	76.2992
0.836824	76.5354
0.845539	76.5354
0.863002	76.7717
0.871751	77.0079
0.884858	77.2441
0.895785	77.4803
0.913283	77.9528
0.919785	77.7165
0.935069	77.9528
0.948141	77.9528
0.963426	78.189
0.972175	78.4252
0.983103	78.6614
0.993996	78.6614
1.00489	78.6614
1.02239	79.1339
