Adsorption isotherm of Methane on C36H24Cu3N13O12
DOI: 10.1021/acs.inorgchem.5b00561
Article source: Figure 6b
Adsorbate Methane: InChIKey VNWKTOKETHGBQD-UHFFFAOYSA-N
Kind: experiment
Temperature: 273 K
Tabular data in the source: 0
pressure (bar)	uptake (cm3(STP)/g)
0	0
0.026226	0.478636
0.028468	0.715386
0.05252	1.19351
0.054694	1.19402
0.076708	2.1441
0.080988	1.90889
0.105108	2.62325
0.107351	2.86
0.12488	3.33659
0.131334	3.10189
0.148863	3.57847
0.159597	3.10857
0.181611	4.05865
0.185891	3.82344
0.203489	4.53626
0.210011	4.5378
0.22754	5.01438
0.2361	4.54396
0.25594	5.49353
0.257977	5.02157
0.277681	5.49866
0.28196	5.26346
0.303975	6.21354
0.310429	5.97884
0.330132	6.45594
0.336586	6.22124
0.35201	6.93355
0.358395	6.46261
0.380341	7.17646
0.384621	6.94125
0.404256	7.18211
0.404393	7.65458
0.43055	7.89698
0.434761	7.42553
0.456707	8.13938
0.458813	7.90366
0.478585	8.61699
0.484901	7.90982
0.504742	8.85939
0.508953	8.38794
0.530968	9.33802
0.53511	8.63034
0.552708	9.34316
0.561336	9.10898
0.581039	9.58607
0.585251	9.11463
0.602849	9.82744
0.613582	9.35754
0.629006	10.0698
0.635391	9.59891
0.652989	10.3117
0.659443	10.077
0.679146	10.5541
0.6856	10.3194
0.698713	10.5588
0.709583	10.5613
0.731392	10.8027
0.733635	11.0394
0.755375	11.0446
0.777253	11.5222
0.779358	11.2865
0.803342	11.5283
0.80769	11.5294
0.829567	12.007
0.833847	11.7718
0.855656	12.0131
0.877397	12.0183
0.883987	12.2561
0.90797	12.4979
0.929711	12.5031
0.934128	12.7403
0.953694	12.745
0.955868	12.7455
0.982094	13.2241
0.9842	12.9884
0.995138	13.2272
0.999486	13.2282
1.00383	13.2293
