Adsorption isotherm of Carbon Dioxide on C36H24Cu3N13O12
DOI: 10.1021/acs.inorgchem.5b00561
Article source: Figure 5a
Adsorbate Carbon Dioxide: InChIKey CURLTUGMZLYLDI-UHFFFAOYSA-N
Kind: experiment
Temperature: 273 K
Tabular data in the source: 0
pressure (bar)	uptake (cm3(STP)/g)
0	0
0.000519	1.31004
0.001038	0.218341
0.002595	1.0917
0.004671	3.27511
0.00519	2.40175
0.006747	4.14847
0.0073	4.63902
0.007322	3.71094
0.007364	1.85478
0.00739	0.741088
0.007785	3.27511
0.009343	4.80349
0.010381	3.93013
0.011025	3.71025
0.011051	2.59656
0.012834	5.56606
0.014708	4.63764
0.023875	10.917
0.02699	10.262
0.027524	10.9462
0.029389	10.389
0.049827	17.6856
0.052941	22.7074
0.053296	17.6235
0.055027	22.8204
0.074221	25.3275
0.077194	25.2293
0.078374	37.3362
0.078775	36.9227
0.09654	36.0262
0.097311	36.1768
0.100692	41.9214
0.102733	41.9299
0.121166	45.6388
0.122491	44.7598
0.12301	45.8515
0.123048	44.3391
0.148862	49.1603
0.149481	49.7817
0.152579	48.6028
0.176584	51.5682
0.17841	52.6815
0.198751	53.977
0.204276	55.2753
0.224625	56.1996
0.226455	57.1273
0.248656	58.0513
0.254186	59.164
0.274522	60.6451
0.274544	59.717
0.300431	61.3828
0.302266	62.1249
0.324462	63.2344
0.328174	62.8625
0.348506	64.5293
0.352223	63.9717
0.372555	65.6385
0.376271	65.081
0.396607	66.5621
0.404023	66.1895
0.42066	67.4857
0.42808	66.9275
0.448421	68.223
0.455837	67.8504
0.472478	68.961
0.481746	68.5881
0.498387	69.6987
0.503946	69.512
0.522444	70.4367
0.528008	70.0644
0.546505	70.989
0.553921	70.6164
0.572418	71.5411
0.577978	71.3544
0.598331	72.0931
0.603887	72.0921
0.622392	72.6455
0.6298	72.6441
0.646449	73.3835
0.655713	73.1962
0.670515	73.7503
0.679779	73.5629
0.694581	74.117
0.705692	74.115
0.718642	74.6694
0.731605	74.667
0.742707	75.0362
0.755675	74.8481
0.772329	75.4019
0.783436	75.5854
0.794542	75.769
0.807501	75.9522
0.82046	76.1354
0.829719	76.1337
0.844525	76.5022
0.857484	76.6854
0.870443	76.8686
0.881554	76.8665
0.894508	77.2354
0.905624	77.0477
0.918578	77.4165
0.931537	77.5997
0.944496	77.7829
0.957454	77.9661
0.970418	77.9637
0.975964	78.3339
0.987071	78.5175
1.00373	78.7
