Adsorption isotherm of Methane on C36H24Cu3N13O12
DOI: 10.1021/acs.inorgchem.5b00561
Article source: Figure 6b
Adsorbate Methane: InChIKey VNWKTOKETHGBQD-UHFFFAOYSA-N
Kind: experiment
Temperature: 298 K
Tabular data in the source: 0
pressure (bar)	uptake (cm3(STP)/g)
0	0
0.015219	0.237942
0.032607	0.476392
0.056503	0.716368
0.080365	0.72196
0.110768	0.963461
0.110802	1.19784
0.13036	1.4368
0.134698	1.43782
0.152086	1.67627
0.162899	1.44443
0.178185	2.15114
0.191167	1.9198
0.202081	2.39111
0.21069	1.92438
0.228146	2.6316
0.236789	2.39925
0.254211	2.87208
0.262889	2.87411
0.278107	3.11206
0.28892	2.88022
0.302003	3.35203
0.306274	2.88428
0.330238	3.59302
0.338881	3.36068
0.356303	3.83351
0.362777	3.60065
0.380199	4.07348
0.388808	3.60675
0.404094	4.31346
0.408399	4.08009
0.428024	4.78782
0.43016	4.55394
0.451886	4.79341
0.456225	4.79443
0.477951	5.03389
0.482256	4.80053
0.501813	5.03949
0.51049	5.04152
0.527946	5.74874
0.534386	5.2815
0.549605	5.51944
0.556079	5.28658
0.582212	5.99583
0.584313	5.52757
0.603905	6.00092
0.610379	5.76806
0.62997	6.2414
0.634308	6.24242
0.651696	6.48087
0.658136	6.01363
0.677728	6.48697
0.684202	6.25411
0.701624	6.72694
0.708131	6.72847
0.729858	6.96794
0.734163	6.73457
0.753754	7.20791
0.758059	6.97454
0.779785	7.21401
0.78409	6.98065
0.801512	7.45348
0.807986	7.22062
0.827543	7.45958
0.831882	7.4606
0.853608	7.70006
0.860082	7.46721
0.879673	7.94055
0.883978	7.70718
0.903535	7.94614
0.910043	7.94767
0.927431	8.18612
0.936108	8.18815
0.953462	8.19222
0.95997	8.19374
0.975189	8.43168
0.979528	8.4327
0.996882	8.43677
1	8.67268
