Adsorption isotherm of Carbon Dioxide on C36H24Cu3N13O12
DOI: 10.1021/acs.inorgchem.5b00561
Article source: Figure 5b
Adsorbate Carbon Dioxide: InChIKey CURLTUGMZLYLDI-UHFFFAOYSA-N
Kind: experiment
Temperature: 283 K
Tabular data in the source: 0
pressure (bar)	uptake (cm3(STP)/g)
0	0
0.003717	0.529646
0.003883	0
0.003892	0.657895
0.006492	1.53509
0.007435	1.05929
0.007798	2.41228
0.009294	1.76603
0.009746	2.85088
0.011152	2.64954
0.013011	2.11891
0.025972	6.35965
0.027881	6.53548
0.029234	8.33333
0.048044	11.4035
0.048327	11.6581
0.049373	14.0351
0.050186	13.6022
0.07206	16.6667
0.072491	16.4266
0.078067	20.8448
0.084441	23.0263
0.096721	21.7105
0.098513	21.725
0.101348	29.1667
0.10223	28.2648
0.122143	35.5263
0.124535	35.5083
0.124644	28.7281
0.126394	28.7908
0.136408	37.5
0.148699	38.8626
0.150011	38.3772
0.150558	37.9784
0.174721	41.8631
0.175952	42.3246
0.180297	42.3924
0.197026	44.3339
0.19799	44.7368
0.202602	45.0399
0.223048	46.6272
0.230483	47.1562
0.247212	48.7442
0.254647	48.9196
0.273234	50.684
0.27881	51.0366
0.297398	52.2707
0.302974	52.8
0.32342	54.2105
0.325279	53.8566
0.349442	55.2665
0.351301	55.443
0.373606	56.6764
0.379182	56.8522
0.399628	57.9092
0.403346	58.0853
0.425651	58.9652
0.429368	58.9645
0.449814	60.0215
0.45539	60.1973
0.472119	60.5479
0.477695	60.7236
0.498141	61.7806
0.507435	61.9558
0.522305	62.6602
0.52974	63.0124
0.552045	63.5388
0.553903	63.7152
0.574349	64.2419
0.578067	64.2413
0.598513	64.9447
0.604089	64.9437
0.624535	65.6472
0.63197	65.8226
0.64684	65.9968
0.654275	66.1722
0.674721	66.6989
0.680297	66.8747
0.697026	67.402
0.70632	67.5772
0.723048	68.1045
0.730483	68.1032
0.750929	68.4531
0.758364	68.6286
0.773234	69.1562
0.780669	69.3317
0.797398	69.5055
0.806691	69.5039
0.825279	70.0309
0.832714	70.0296
0.849442	70.5569
0.856877	70.3788
0.873606	70.9062
0.8829	70.9045
0.899628	71.0783
0.908922	71.2535
0.925651	71.7808
0.933086	71.7795
0.951673	71.953
0.959108	72.1284
0.975836	72.479
0.983271	72.6545
0.992565	72.6528
1.00372	73.0044
