Adsorption isotherm of Carbon Dioxide on C36H24Cu3N13O12
DOI: 10.1021/acs.inorgchem.5b00561
Article source: Figure 5c
Adsorbate Carbon Dioxide: InChIKey CURLTUGMZLYLDI-UHFFFAOYSA-N
Kind: experiment
Temperature: 298 K
Tabular data in the source: 0
pressure (bar)	uptake (cm3(STP)/g)
0	0
0.003426	0.197044
0.003443	0.788177
0.004588	0.985222
0.005566	0.299338
0.006857	0.591133
0.00688	1.37931
0.009171	1.7734
0.009276	0.449146
0.010289	0.985222
0.011132	1.19569
0.024054	3.94089
0.026311	3.15271
0.027829	4.18326
0.029685	3.13876
0.049242	7.68473
0.050343	6.30542
0.051948	5.9779
0.075497	8.867
0.07557	11.4286
0.076067	8.96658
0.099523	11.8227
0.099618	15.1724
0.102041	11.8063
0.124806	18.9163
0.125828	14.7783
0.12616	18.6755
0.128015	14.7952
0.149848	17.5369
0.149994	22.6601
0.150278	17.3359
0.174397	27.041
0.175205	27.1921
0.176252	20.4741
0.1773	20.6897
0.201325	23.6453
0.202226	23.463
0.203841	31.9212
0.224413	33.6946
0.22449	33.7648
0.227659	27.5862
0.2282	27.4967
0.246753	35.7085
0.249551	35.665
0.251735	32.3153
0.252319	31.978
0.272727	37.2049
0.274688	37.6355
0.276438	36.6084
0.278086	36.8473
0.298701	38.7013
0.300557	38.4031
0.300949	39.0148
0.303218	38.6207
0.324675	39.8992
0.326059	40
0.326075	40.5911
0.326531	40.4965
0.350034	41.1823
0.350649	41.2464
0.376623	42.5935
0.400742	44.5374
0.402597	43.6422
0.426716	45.5861
0.428571	44.8401
0.450835	46.4852
0.45269	45.8885
0.476809	46.7876
0.500928	47.836
0.525046	48.7351
0.526902	49.4816
0.55102	50.2315
0.552876	49.784
0.575139	50.9814
0.576994	50.5339
0.599258	51.582
0.601113	51.2837
0.625232	52.4814
0.627087	52.1831
0.651206	53.2315
0.656772	52.9338
0.67718	53.8324
0.679035	53.3849
0.703154	53.9855
0.725417	55.0336
0.730983	54.5867
0.751391	55.6345
0.753247	55.1871
0.777365	56.0862
0.779221	55.9372
0.80334	56.6871
0.805195	56.5381
0.827458	57.2877
0.829314	57.1387
0.851577	57.739
0.855288	57.5903
0.875696	58.0411
0.877551	57.8922
0.903525	58.6423
0.927644	58.9444
0.929499	58.9447
0.951763	59.3958
0.977737	59.6982
0.979592	59.6984
0.998145	59.9997
1	60
