Adsorption isotherm of Carbon Dioxide on C36H24Cu3N13O12
DOI: 10.1021/acs.inorgchem.5b00561
Article source: Figure 6b
Adsorbate Carbon Dioxide: InChIKey CURLTUGMZLYLDI-UHFFFAOYSA-N
Kind: experiment
Temperature: 283 K
Tabular data in the source: 0
pressure (bar)	uptake (cm3(STP)/g)
0	0
0.026087	6.83347
0.030435	7.53999
0.05	12.9599
0.052174	14.1386
0.080435	16.9622
0.102174	28.2778
0.128261	35.8188
0.130435	28.7428
0.152174	39.1151
0.158696	37.9343
0.180435	41.7027
0.186957	42.4087
0.204348	44.5273
0.221739	46.6458
0.230435	47.1155
0.247826	48.7623
0.254348	49.4683
0.273913	50.8788
0.282609	51.1126
0.302174	52.7589
0.328261	54.4037
0.330435	54.1674
0.347826	55.5783
0.354348	55.8127
0.376087	57.2226
0.380435	56.7499
0.4	58.1604
0.404348	58.1594
0.426087	59.0976
0.432609	58.8602
0.45	60.0354
0.456522	60.0338
0.478261	60.9721
0.482609	60.9711
0.5	61.9104
0.506522	61.9088
0.523913	62.6123
0.534783	63.0814
0.552174	63.3132
0.556522	63.7838
0.573913	64.4873
0.580435	64.4857
0.604348	64.9518
0.608696	65.1866
0.623913	65.6547
0.632609	65.8885
0.65	66.1203
0.656522	66.3546
0.676087	66.8217
0.682609	66.8201
0.7	67.5236
0.708696	67.5215
0.726087	67.7533
0.730435	67.9881
0.752174	68.4547
0.756522	68.4537
0.773913	68.9212
0.780435	68.9197
0.8	69.3868
0.808696	69.6206
0.819565	70.0897
0.836957	70.0856
0.85	70.3184
0.858696	70.5522
0.871739	70.785
0.882609	71.0183
0.897826	71.0147
0.91087	71.4833
0.926087	71.7155
0.932609	71.9499
0.952174	71.9452
0.956522	72.4159
0.969565	72.177
0.980435	72.6461
0.993478	72.643
1.00652	73.1117
