Adsorption isotherm of Carbon Dioxide on C36H24Cu3N13O12
DOI: 10.1021/acs.inorgchem.5b00561
Article source: Figure 6a
Adsorbate Carbon Dioxide: InChIKey CURLTUGMZLYLDI-UHFFFAOYSA-N
Kind: experiment
Temperature: 195 K
Tabular data in the source: 0
pressure (bar)	uptake (cm3(STP)/g)
0.00292	49.2488
0.006025	60.9788
0.006311	64.8135
0.007754	54.2123
0.008627	65.9418
0.008862	69.0997
0.008929	70.002
0.011245	71.1304
0.011362	72.7093
0.011513	74.7394
0.013897	76.7701
0.014081	79.2513
0.016095	76.3194
0.016213	77.8984
0.01638	80.1541
0.016481	81.5075
0.01873	81.7335
0.022926	78.1255
0.034674	86.0229
0.059597	90.9909
0.060319	100.69
0.084353	93.7032
0.106809	95.5128
0.107631	106.566
0.135962	97.3239
0.158384	98.6823
0.159223	109.961
0.185271	100.042
0.210714	112.002
0.212124	100.95
0.23453	102.083
0.259923	113.367
0.261383	102.991
0.288237	103.9
0.309115	114.506
0.312858	104.807
0.33523	105.489
0.35829	115.419
0.3621	106.623
0.386704	107.305
0.407465	116.333
0.411309	107.988
0.433698	108.895
0.456624	117.02
0.460534	109.578
0.485155	110.485
0.510229	117.484
0.511992	111.168
0.536596	111.85
0.557156	118.171
0.5612	112.533
0.588037	113.215
0.608529	118.634
0.610392	113.672
0.634997	114.354
0.657671	119.096
0.661833	115.037
0.686421	115.493
0.709045	119.558
0.711008	115.95
0.737845	116.633
0.758203	120.246
0.762432	117.089
0.78702	117.546
0.807328	120.483
0.809392	118.228
0.836212	118.685
0.858701	120.946
0.860799	119.142
0.887619	119.599
0.905594	121.182
0.91219	119.83
0.936794	120.512
0.959183	121.419
0.961365	120.743
0.988185	121.2
1.00163	121.88
1.00831	121.656
