Adsorption isotherm of Carbon Dioxide on C36H24Cu3N13O12
DOI: 10.1021/acs.inorgchem.5b00561
Article source: Figure 6b
Adsorbate Carbon Dioxide: InChIKey CURLTUGMZLYLDI-UHFFFAOYSA-N
Kind: experiment
Temperature: 298 K
Tabular data in the source: 0
pressure (bar)	uptake (cm3(STP)/g)
0	0
0.016276	2.35452
0.028094	4.47492
0.053495	7.77
0.055261	6.82429
0.080147	8.93851
0.081177	11.3002
0.107624	11.9964
0.11114	15.0656
0.134568	18.8341
0.135203	15.2905
0.158014	17.6419
0.162353	22.6005
0.181134	20.7018
0.188269	27.0764
0.210685	23.5225
0.21854	31.5503
0.238676	27.7613
0.241352	33.9017
0.264488	32.001
0.268313	35.7787
0.293097	37.6568
0.294863	36.7111
0.317366	38.354
0.317571	38.8263
0.342252	40.4682
0.344019	39.5225
0.370877	41.1634
0.371186	41.8719
0.395661	43.0414
0.39753	42.3319
0.419827	43.5024
0.42252	44.6823
0.44461	45.3805
0.44648	44.671
0.470954	45.8405
0.473338	46.3118
0.495635	47.4824
0.499683	46.7718
0.519904	48.1796
0.528411	47.7031
0.546351	48.8757
0.552783	48.6365
0.573004	50.0443
0.577052	49.3337
0.599554	50.9766
0.603602	50.266
0.626001	51.6728
0.630049	50.9622
0.648092	52.371
0.650064	51.8976
0.674539	53.0671
0.678793	52.8289
0.700883	53.5271
0.700986	53.7633
0.72733	54.2233
0.751599	54.9205
0.75575	54.4461
0.775765	55.3815
0.777841	55.1443
0.799931	55.8426
0.802007	55.6054
0.828454	56.3015
0.830632	56.3005
0.85262	56.7625
0.876786	57.2236
0.878964	57.2225
0.90313	57.6836
0.905411	57.9187
0.927296	58.1446
0.929577	58.3797
0.95364	58.6046
0.977806	59.0656
1.00187	59.2905
1.00405	59.2894
1.02178	59.9897
1.02386	59.7525
