Adsorption isotherm of Carbon Dioxide on C36H24Cu3N13O12
DOI: 10.1021/acs.inorgchem.5b00561
Article source: Figure 6b
Adsorbate Carbon Dioxide: InChIKey CURLTUGMZLYLDI-UHFFFAOYSA-N
Kind: experiment
Temperature: 313 K
Tabular data in the source: 0
pressure (bar)	uptake (cm3(STP)/g)
0	0
0.029282	2.81936
0.033461	2.35159
0.053537	3.76255
0.056221	5.16943
0.078811	7.51847
0.08248	5.64433
0.105665	9.63414
0.109248	7.52561
0.132603	11.9842
0.133758	9.17197
0.153919	10.8173
0.159372	13.8655
0.184951	12.4652
0.186395	16.4499
0.207202	13.8767
0.2089	18.5646
0.233749	21.1485
0.238403	15.9934
0.260654	17.4048
0.262947	23.7335
0.287423	19.2861
0.287796	26.3175
0.312561	28.667
0.314276	21.4018
0.337155	30.5478
0.338955	23.5169
0.36389	26.3353
0.365843	31.7264
0.388569	28.4504
0.390098	32.6696
0.414352	33.6127
0.42028	31.9735
0.440866	34.7908
0.442786	34.0882
0.465036	35.4996
0.469214	35.0318
0.49121	35.7401
0.491465	36.4433
0.517724	36.9182
0.517894	37.387
0.537885	38.5636
0.544153	37.8619
0.564229	39.2729
0.570497	38.5712
0.592577	39.5139
0.595006	40.2176
0.616917	40.6915
0.618921	40.2232
0.643091	40.932
0.643261	41.4008
0.665002	41.4059
0.66952	41.8757
0.691346	42.1152
0.691601	42.8183
0.719864	42.825
0.720034	43.2938
0.741945	43.7676
0.743864	43.065
0.768204	44.2425
0.772382	43.7748
0.794463	44.7175
0.796722	44.9524
0.816289	44.9569
0.818633	45.4262
0.842718	45.9006
0.844807	45.6668
0.866718	46.1406
0.87324	46.1422
0.893062	46.8499
0.895151	46.6161
0.919236	47.0904
0.921495	47.3254
0.943321	47.5648
0.945495	47.5654
0.971754	48.0403
0.99149	48.5136
0.995839	48.5146
1.01332	48.7531
1.01549	48.7536
