Adsorption isotherm of Methane on IRMOF-1
DOI: 10.1021/La803074g
Adsorbate Methane: InChIKey VNWKTOKETHGBQD-UHFFFAOYSA-N
Temperature: 300 K
Tabular data in the source: 0
pressure (bar)	uptake (mmol/g)
0.826446	0.307692
2.89256	0.923077
4.82094	1.38462
10.0551	2.92308
15.0138	3.92308
19.8347	4.30769
29.8898	4.38462
39.9449	4.46154
50	4.38462
