Adsorption isotherm of Methane on IRMOF-13
DOI: 10.1021/La803074g
Adsorbate Methane: InChIKey VNWKTOKETHGBQD-UHFFFAOYSA-N
Temperature: 300 K
Tabular data in the source: 0
pressure (bar)	uptake (mmol/g)
0.138889	0.275735
0.833333	0.716912
2.77778	1.48897
4.86111	1.93015
10	2.42647
14.5833	2.48162
19.8611	2.53676
29.7222	2.64706
39.8611	2.59191
49.8611	2.59191
