Adsorption isotherm of Carbon Dioxide on PCN-6
DOI: 10.1021/La803074g
Adsorbate Carbon Dioxide: InChIKey CURLTUGMZLYLDI-UHFFFAOYSA-N
Temperature: 300 K
Tabular data in the source: 0
pressure (bar)	uptake (mmol/g)
3.04659	2.21774
5.19713	3.42742
10.0358	7.45968
15.233	11.4919
20.0717	16.129
30.1075	25.2016
40.1434	33.6694
50	41.129
