Adsorption isotherm of Methane on IRMOF-14
DOI: 10.1021/La803074g
Adsorbate Methane: InChIKey VNWKTOKETHGBQD-UHFFFAOYSA-N
Temperature: 300 K
Tabular data in the source: 0
pressure (bar)	uptake (mmol/g)
0.264756	0.361258
2.92156	1.19434
4.91386	1.90978
9.96111	3.69807
15.0088	5.36552
19.925	6.55021
29.7604	8.07367
35.7437	8.28644
39.9987	8.38671
49.8389	8.45999
