Adsorption isotherm of Carbon Dioxide on IRMOF-1
DOI: 10.1021/La803074g
Adsorbate Carbon Dioxide: InChIKey CURLTUGMZLYLDI-UHFFFAOYSA-N
Temperature: 300 K
Tabular data in the source: 0
pressure (bar)	uptake (mmol/g)
0	0.692308
1.10193	0.692308
3.0303	1.92308
4.95868	3.30769
9.77961	8
15.1515	12.6923
20.1102	15.5385
30.1653	18.6923
40.2204	20.4615
50	21.5385
