Adsorption isotherm of Carbon Dioxide on IRMOF-13
DOI: 10.1021/La803074g
Adsorbate Carbon Dioxide: InChIKey CURLTUGMZLYLDI-UHFFFAOYSA-N
Temperature: 300 K
Tabular data in the source: 0
pressure (bar)	uptake (mmol/g)
0	0.496324
0.138889	1.04779
0.972222	2.48162
2.63889	5.45956
4.86111	7.88603
10	11.3051
12.0833	12.0221
15.1389	12.7941
17.3611	13.1801
20.1389	13.6765
30	14.6691
39.8611	15.386
50.2778	15.7721
