Adsorption isotherm of Carbon Dioxide on Soc-MOF
DOI: 10.1021/La803074g
Adsorbate Carbon Dioxide: InChIKey CURLTUGMZLYLDI-UHFFFAOYSA-N
Temperature: 300 K
Tabular data in the source: 0
pressure (bar)	uptake (mmol/g)
0.0040016	0.408163
0.173569	2.70408
0.204582	5.86735
1.11945	9.18367
2.90116	10.9184
4.96649	11.5816
10.1195	12.1939
14.9765	12.602
20.2741	12.9592
30.1291	13.1633
40.2786	13.4184
50.2801	13.5714
