Adsorption isotherm of Carbon Dioxide on PCN-6
DOI: 10.1021/La803074g
Adsorbate Carbon Dioxide: InChIKey CURLTUGMZLYLDI-UHFFFAOYSA-N
Temperature: 300 K
Tabular data in the source: 0
pressure (bar)	uptake (mmol/g)
0.896057	1.6129
3.04659	4.03226
5.19713	6.65323
9.85663	12.5
14.6953	15.5242
19.8925	17.9435
29.7491	20.7661
39.9642	21.9758
49.8208	22.9839
