Adsorption isotherm of Carbon Dioxide on PCN-6
DOI: 10.1021/La803074g
Adsorbate Carbon Dioxide: InChIKey CURLTUGMZLYLDI-UHFFFAOYSA-N
Temperature: 300 K
Tabular data in the source: 0
pressure (bar)	uptake (mmol/g)
1.1133	1.27566
2.92063	3.66707
5.00674	6.29778
9.8752	12.2769
14.7575	15.7878
20.0675	17.946
29.9963	20.6688
39.7934	21.8787
49.8711	23.0093
