Adsorption isotherm of Carbon Dioxide on IRMOF-14
DOI: 10.1021/La803074g
Adsorbate Carbon Dioxide: InChIKey CURLTUGMZLYLDI-UHFFFAOYSA-N
Temperature: 300 K
Tabular data in the source: 0
pressure (bar)	uptake (mmol/g)
0.928054	0.841435
3.18431	2.15983
4.90744	3.84335
9.94705	7.92775
15.1164	12.9783
20.0198	18.0301
24.9249	22.5986
29.8323	26.4419
34.7434	29.1976
39.7898	31.2276
49.7537	34.0797
