Adsorption isotherm of Methane on PCN-6
DOI: 10.1021/La803074g
Adsorbate Methane: InChIKey VNWKTOKETHGBQD-UHFFFAOYSA-N
Temperature: 300 K
Tabular data in the source: 0
pressure (bar)	uptake (mmol/g)
0.977707	0.479264
2.93357	1.35817
5.02948	2.23731
10.0643	3.51921
15.1032	4.08456
20.0042	4.2516
29.8076	4.34683
39.751	4.44228
50.1155	4.37916
