Adsorption isotherm of Methane on PCN-6
DOI: 10.1021/La803074g
Adsorbate Methane: InChIKey VNWKTOKETHGBQD-UHFFFAOYSA-N
Temperature: 300 K
Tabular data in the source: 0
pressure (bar)	uptake (mmol/g)
0.278771	0.239297
3.07362	1.3584
5.02725	2.63539
10.063	3.75806
15.1023	4.24379
20.0029	4.49045
29.9459	4.66552
40.0289	4.84081
50.1128	4.85687
