Adsorption isotherm of Carbon Dioxide on PCN-6'
DOI: 10.1021/La803074g
Adsorbate Carbon Dioxide: InChIKey CURLTUGMZLYLDI-UHFFFAOYSA-N
Temperature: 300 K
Tabular data in the source: 0
pressure (bar)	uptake (mmol/g)
0.816872	1.14052
2.85324	2.27756
4.8901	3.55746
10.0527	7.54271
14.9428	11.1002
19.7027	16.2294
30.0312	25.1999
40.0872	33.7426
50.1384	40.8567
