Adsorption isotherm of Carbon Dioxide on PCN-6'
DOI: 10.1021/La803074g
Adsorbate Carbon Dioxide: InChIKey CURLTUGMZLYLDI-UHFFFAOYSA-N
Temperature: 300 K
Tabular data in the source: 0
pressure (bar)	uptake (mmol/g)
0.816872	1.14052
2.85179	1.84899
4.75315	3.12928
9.77875	6.68635
14.8048	10.3863
19.8319	14.3719
30.0239	23.0571
39.9454	31.8859
50.1316	38.8568
