Adsorption isotherm of Methane on IRMOF-13
DOI: 10.1021/La803074g
Adsorbate Methane: InChIKey VNWKTOKETHGBQD-UHFFFAOYSA-N
Temperature: 300 K
Tabular data in the source: 0
pressure (bar)	uptake (mmol/g)
0.133044	0.275735
1.09177	0.716912
3.00922	1.59926
4.93277	2.15074
10.1722	2.64706
15.0045	2.75735
19.8377	2.8125
29.9196	2.86765
39.7252	2.92279
49.8081	2.92279
