Adsorption isotherm of Methane on PCN-6'
DOI: 10.1021/La803074g
Adsorbate Methane: InChIKey VNWKTOKETHGBQD-UHFFFAOYSA-N
Temperature: 300 K
Tabular data in the source: 0
pressure (bar)	uptake (mmol/g)
0.679436	0.569487
2.71339	0.992247
4.74831	1.70072
9.76762	3.40066
14.7869	5.10061
20.0763	6.51407
29.9765	9.05721
40.0098	10.8857
50.1762	11.9995
