Adsorption isotherm of Methane on PCN-6
DOI: 10.1021/La803074g
Adsorbate Methane: InChIKey VNWKTOKETHGBQD-UHFFFAOYSA-N
Temperature: 300 K
Tabular data in the source: 0
pressure (bar)	uptake (mmol/g)
0.896057	0.403226
2.68817	1.41129
4.83871	2.01613
10.0358	3.62903
14.6953	4.23387
20.0717	4.43548
29.9283	4.43548
39.7849	4.6371
50	4.23387
