Adsorption isotherm of Carbon Dioxide on IRMOF-1
DOI: 10.1021/La803074g
Adsorbate Carbon Dioxide: InChIKey CURLTUGMZLYLDI-UHFFFAOYSA-N
Temperature: 300 K
Tabular data in the source: 0
pressure (bar)	uptake (mmol/g)
2.89256	1.53846
4.95868	2.69231
10.0551	6.69231
14.876	11.0769
19.9725	14.1538
29.8898	17.5385
39.9449	19.3077
50	20.5385
