Adsorption isotherm of Carbon Dioxide on IRMOF-1
DOI: 10.1021/La803074g
Adsorbate Carbon Dioxide: InChIKey CURLTUGMZLYLDI-UHFFFAOYSA-N
Temperature: 300 K
Tabular data in the source: 0
pressure (bar)	uptake (mmol/g)
0.184502	0.614754
1.10701	0.717213
3.13653	1.94672
5.35055	3.38115
10.1476	7.88934
15.3137	12.3975
19.7417	15.5738
29.8893	18.6475
40.2214	20.5943
50.1845	21.6189
