Adsorption isotherm of Methane on Soc-MOF
DOI: 10.1021/La803074g
Adsorbate Methane: InChIKey VNWKTOKETHGBQD-UHFFFAOYSA-N
Temperature: 300 K
Tabular data in the source: 0
pressure (bar)	uptake (mmol/g)
0.00397448	0.405397
1.03287	0.352636
2.94559	0.45011
5.00437	0.445937
9.85722	0.4361
15.1512	0.425369
20.0041	0.415532
30.0039	0.395262
40.0042	0.425667
50.0035	0.354723
