Adsorption isotherm of Methane on PCN-6
DOI: 10.1021/La803074g
Adsorbate Methane: InChIKey VNWKTOKETHGBQD-UHFFFAOYSA-N
Temperature: 300 K
Tabular data in the source: 0
pressure (bar)	uptake (mmol/g)
3.22581	1.6129
5.19713	2.21774
10.0358	3.62903
14.8746	5.04032
19.8925	6.65323
30.1075	9.07258
39.6057	10.6855
50	11.6935
