Adsorption isotherm of Carbon Dioxide on CuBTC
DOI: 10.1021/La803074g
Adsorbate Carbon Dioxide: InChIKey CURLTUGMZLYLDI-UHFFFAOYSA-N
Temperature: 300 K
Tabular data in the source: 0
pressure (bar)	uptake (mmol/g)
0.267336	0.806962
1.08108	1.9462
3.11761	4.55696
5.02069	6.74051
9.93662	9.92089
14.8673	11.4873
19.9441	12.1044
29.8251	13.1013
40.1208	13.8133
50.0078	14.1456
