Adsorption isotherm of Carbon Dioxide on IRMOF-14
DOI: 10.1021/La803074g
Adsorbate Carbon Dioxide: InChIKey CURLTUGMZLYLDI-UHFFFAOYSA-N
Temperature: 300 K
Tabular data in the source: 0
pressure (bar)	uptake (mmol/g)
3.06859	2.60163
5.05415	4.22764
9.9278	9.10569
14.9819	14.1463
20.2166	19.187
29.9639	27.9675
39.8917	32.6829
50.1805	35.4472
