Adsorption isotherm of Methane on IRMOF-1
DOI: 10.1021/La803074g
Adsorbate Methane: InChIKey VNWKTOKETHGBQD-UHFFFAOYSA-N
Temperature: 300 K
Tabular data in the source: 0
pressure (bar)	uptake (mmol/g)
0.137741	0.153846
9.91736	2.92308
15.0138	4.07692
20.2479	4.46154
30.1653	4.76923
40.0826	4.69231
50	4.84615
