Adsorption isotherm of Carbon Dioxide on IRMOF-13
DOI: 10.1021/La803074g
Adsorbate Carbon Dioxide: InChIKey CURLTUGMZLYLDI-UHFFFAOYSA-N
Temperature: 300 K
Tabular data in the source: 0
pressure (bar)	uptake (mmol/g)
0.180505	1.30081
0.902527	2.92683
2.88809	5.52846
5.05415	8.13008
10.2888	11.5447
14.8014	12.8455
20.0361	13.8211
29.9639	14.7967
39.7112	15.2846
50	15.935
