Adsorption isotherm of Carbon Dioxide on IRMOF-13
DOI: 10.1021/La803074g
Adsorbate Carbon Dioxide: InChIKey CURLTUGMZLYLDI-UHFFFAOYSA-N
Temperature: 300 K
Tabular data in the source: 0
pressure (bar)	uptake (mmol/g)
0.138889	0.882353
0.833333	2.09559
2.77778	4.6875
4.86111	7.11397
7.5	8.76838
10	10.5331
14.8611	12.0772
20	13.0147
25.1389	13.3456
30	13.7316
34.8611	14.1728
40.1389	14.7794
50.2778	15.2757
