Adsorption isotherm of Methane on IRMOF-13
DOI: 10.1021/La803074g
Adsorbate Methane: InChIKey VNWKTOKETHGBQD-UHFFFAOYSA-N
Temperature: 300 K
Tabular data in the source: 0
pressure (bar)	uptake (mmol/g)
1.08303	0.650407
2.88809	1.46341
5.05415	2.11382
10.1083	2.60163
14.8014	2.60163
20.0361	2.76423
29.6029	2.76423
39.8917	2.76423
49.8195	2.76423
