Adsorption isotherm of Methane on CuBTC
DOI: 10.1021/La803074g
Adsorbate Methane: InChIKey VNWKTOKETHGBQD-UHFFFAOYSA-N
Temperature: 300 K
Tabular data in the source: 0
pressure (bar)	uptake (mmol/g)
0.411219	0.0949367
3.01241	1.0443
5.06807	1.56646
10.1479	1.85127
15.2294	1.9462
19.625	1.9462
29.9264	2.04114
40.0916	1.99367
49.8439	2.04114
