Adsorption isotherm of Carbon Dioxide on IRMOF-14
DOI: 10.1021/La803074g
Adsorbate Carbon Dioxide: InChIKey CURLTUGMZLYLDI-UHFFFAOYSA-N
Temperature: 300 K
Tabular data in the source: 0
pressure (bar)	uptake (mmol/g)
1.05983	1.20334
3.1823	2.76407
5.03841	4.44694
10.076	9.13558
14.9794	14.1874
20.0162	19.1177
24.5231	23.4464
29.8279	27.7712
34.6068	30.2859
39.7862	32.3152
49.7497	35.2882
