Adsorption isotherm of Carbon Dioxide on CuBTC
DOI: 10.1021/La803074g
Adsorbate Carbon Dioxide: InChIKey CURLTUGMZLYLDI-UHFFFAOYSA-N
Temperature: 300 K
Tabular data in the source: 0
pressure (bar)	uptake (mmol/g)
0.358607	0.786885
0.898023	1.83607
3.07302	4.52459
5.07172	6.55738
9.99503	10.0328
14.7579	11.4754
19.8959	12.2623
29.9949	13.2459
40.0991	13.7705
49.8365	14.2295
