Adsorption isotherm of Methane on IRMOF-14
DOI: 10.1021/La803074g
Adsorbate Methane: InChIKey VNWKTOKETHGBQD-UHFFFAOYSA-N
Temperature: 300 K
Tabular data in the source: 0
pressure (bar)	uptake (mmol/g)
2.88809	1.46341
9.9278	3.57724
14.9819	5.04065
19.8556	6.50407
29.7834	7.80488
39.7112	8.13008
49.8195	8.29268
