Adsorption isotherm of Methane on CuBTC
DOI: 10.1021/La803074g
Adsorbate Methane: InChIKey VNWKTOKETHGBQD-UHFFFAOYSA-N
Temperature: 300 K
Tabular data in the source: 0
pressure (bar)	uptake (mmol/g)
0.73002	0.459016
2.7453	1.04918
4.57826	1.5082
10.4568	1.83607
15.0509	1.96721
19.8296	2.03279
29.9399	2.03279
40.0509	1.96721
49.9766	2.03279
