Adsorption isotherm of Methane on CuBTC
DOI: 10.1021/La803074g
Adsorbate Methane: InChIKey VNWKTOKETHGBQD-UHFFFAOYSA-N
Temperature: 300 K
Tabular data in the source: 0
pressure (bar)	uptake (mmol/g)
0.411219	0.0949367
3.01241	1.0443
5.06807	1.56646
10.007	2.23101
14.9495	2.51582
19.8937	2.61076
29.9198	2.75316
39.8091	2.8481
49.6988	2.89557
