Adsorption isotherm of Methane on IRMOF-1
DOI: 10.1021/La803074g
Adsorbate Methane: InChIKey VNWKTOKETHGBQD-UHFFFAOYSA-N
Temperature: 300 K
Tabular data in the source: 0
pressure (bar)	uptake (mmol/g)
0.922509	0.204918
5.16605	1.33197
9.9631	2.86885
14.9446	3.68852
19.7417	4.20082
30.0738	4.30328
40.0369	4.5082
49.8155	4.5082
