Adsorption isotherm of Carbon Dioxide on CuBTC
DOI: 10.1021/La803074g
Adsorbate Carbon Dioxide: InChIKey CURLTUGMZLYLDI-UHFFFAOYSA-N
Temperature: 300 K
Tabular data in the source: 0
pressure (bar)	uptake (mmol/g)
0.269074	0.617089
0.948932	1.37658
3.13152	3.03797
4.90289	4.60443
9.95923	7.45253
15.0277	8.97152
19.9624	10.1108
29.9803	11.1551
39.8639	11.8671
49.7505	12.2468
