Adsorption isotherm of Carbon Dioxide on PCN-6
DOI: 10.1021/La803074g
Adsorbate Carbon Dioxide: InChIKey CURLTUGMZLYLDI-UHFFFAOYSA-N
Temperature: 300 K
Tabular data in the source: 0
pressure (bar)	uptake (mmol/g)
0.975031	0.956967
3.06381	3.10997
4.864	6.77526
10.2998	11.4814
14.7642	14.5936
20.072	17.1498
29.7224	19.5537
39.6582	21.0026
49.7364	22.0537
