Adsorption isotherm of Hydrogen on IRMOF-1
DOI: 10.1016/j.powtec.2013.07.034
Adsorbate Hydrogen: InChIKey UFHFLCQGNIYNRP-UHFFFAOYSA-N
Temperature: 77 K
Tabular data in the source: 0
pressure (bar)	uptake (wt%)
0.00251256	0.0670972
0.00502513	0.100637
0.00753769	0.19458
0.0125628	0.234815
0.0175879	0.32203
0.0201005	0.415972
0.0226131	0.462935
0.0251256	0.503187
0.0301508	0.597113
0.0351759	0.644059
0.0427136	0.690988
0.0477387	0.724512
0.0628141	0.784813
0.0678392	0.804914
0.110553	0.952278
0.130653	1.01926
0.168342	1.10625
0.201005	1.18657
0.238693	1.24672
0.271357	1.3069
0.30402	1.35366
0.336683	1.39371
0.374372	1.43373
0.407035	1.47378
0.442211	1.51381
0.474874	1.53373
0.507538	1.57377
0.540201	1.59369
0.575377	1.62701
0.610553	1.64691
0.645729	1.67352
0.678392	1.69343
0.711055	1.71335
0.746231	1.73996
0.778894	1.75316
0.81407	1.77306
0.846734	1.79297
0.884422	1.81286
0.914573	1.82608
0.949749	1.84597
