Adsorption isotherm of Nitrogen on IRMOF-1
DOI: 10.1016/j.powtec.2013.07.034
Adsorbate Nitrogen: InChIKey IJGRMHOSHXDMSA-UHFFFAOYSA-N
Temperature: 77 K
Tabular data in the source: 0
pressure (bar)	uptake (cm3(STP)/g)
0.000484177	19.6358
0.000699367	28.3629
0.00086076	34.9081
0.00169462	68.7254
0.00262711	6.5425
0.00278851	13.0878
0.00354167	43.6324
0.00375686	52.3594
0.00394515	59.9956
0.00442932	79.6314
0.00459072	86.1767
0.00477901	93.8128
0.0049673	101.449
0.00515559	109.085
0.00529009	114.54
0.00545148	121.085
0.00566667	129.812
0.00582806	136.357
0.00601635	143.993
0.00617775	150.539
0.00636604	158.175
0.00650053	163.629
0.00674262	173.447
0.00693091	181.083
0.0120775	189.805
0.0170897	193.072
0.027114	199.606
0.0370307	201.777
0.0494937	207.217
0.0568909	207.209
0.0643149	208.291
0.0742047	209.371
0.0890796	212.627
0.101435	213.704
0.123653	214.77
0.138475	215.845
0.150803	215.831
0.168063	215.811
0.180419	216.888
0.200172	217.957
0.224829	217.929
0.259375	218.981
0.293923	220.034
0.321073	221.094
0.34329	222.16
0.370413	222.13
0.392605	222.105
0.417316	224.259
0.437042	224.237
0.461699	224.209
0.486383	225.272
0.513506	225.242
0.535697	225.217
0.560381	226.28
0.582573	226.255
0.609723	227.315
0.63438	227.288
0.659037	227.26
0.681256	228.326
0.705913	228.298
0.730597	229.361
0.762678	230.416
0.797252	232.559
0.821909	232.532
0.841662	233.6
