Adsorption isotherm of Nitrogen on COF-14A
DOI: 10.1002/adma.200800030
Article source: Figure 3
Adsorbate Nitrogen: InChIKey IJGRMHOSHXDMSA-UHFFFAOYSA-N
Kind: experiment
Temperature: 77 K
Tabular data in the source: 0
pressure (bar)	uptake (cm3(STP)/g)
0	90.1734
0	145.665
0.049416	216.763
0.105885	232.37
0.151765	241.04
0.202944	249.711
0.254123	253.179
0.305302	266.185
0.409414	275.723
0.508246	289.595
0.610595	294.798
0.712953	305.202
0.811775	317.341
0.912371	338.15
0	105.78
0	152.601
0.001763	185.549
0.010588	197.688
0.047643	230.636
0.099704	241.908
0.151765	252.312
0.202944	258.382
0.25236	265.318
0.301766	271.387
0.404125	280.925
0.506473	296.532
0.604424	302.601
0.706772	311.272
0.804713	322.543
0.909716	342.486
1.00766	398.844
