Adsorption isotherm of Hydrogen on COF-11A
DOI: 10.1002/adma.200800030
Article source: Figure 4
Adsorbate Hydrogen: InChIKey UFHFLCQGNIYNRP-UHFFFAOYSA-N
Kind: experiment
Temperature: 77 K
Tabular data in the source: 0
pressure (bar)	uptake (cm3(STP)/g)
0	2.27273
0.010619	8.63636
0.056641	30
0.104426	45.9091
0.15752	56.3636
0.205305	63.1818
0.256636	71.3636
0.306184	77.2727
0.4053	87.7273
0.509726	97.2727
0.612378	105.909
0.713257	113.636
0.815909	121.818
0.913252	129.091
0.005309	11.8182
0.012392	18.1818
0.053094	39.0909
0.102652	52.2727
0.153092	61.8182
0.203532	70
0.25309	76.8182
0.301766	82.5
0.407073	93.6364
0.506179	102.273
0.608832	110.455
0.711484	119.091
0.814136	124.545
0.913252	130.909
1.01148	135.455
