Adsorption isotherm of Hydrogen on COF-16A
DOI: 10.1002/adma.200800030
Article source: Figure 4
Adsorbate Hydrogen: InChIKey UFHFLCQGNIYNRP-UHFFFAOYSA-N
Kind: experiment
Temperature: 77 K
Tabular data in the source: 0
pressure (bar)	uptake (cm3(STP)/g)
0	1.36364
0.003536	6.81818
0.014155	13.6364
0.107962	54.0909
0.205305	73.1818
0.25309	81.8182
0.511489	113.182
0.610605	123.182
0.71503	133.182
0.815909	140.455
0.913252	148.636
0.408836	103.636
0.507952	115.909
0.610605	125.455
0.711484	133.636
0.815909	141.818
0.913252	148.636
1.01237	155
