Adsorption isotherm of Nitrogen on COF-18A
DOI: 10.1002/adma.200800030
Article source: Figure 3
Adsorbate Nitrogen: InChIKey IJGRMHOSHXDMSA-UHFFFAOYSA-N
Kind: experiment
Temperature: 77 K
Tabular data in the source: 0
pressure (bar)	uptake (cm3(STP)/g)
0	79.7688
0.005289	171.676
0.003526	272.254
0.009707	304.335
0.049416	384.971
0.109411	402.312
0.202944	421.387
0.310592	426.59
0.404125	440.462
0.506473	443.931
0.71119	457.803
0.915897	478.613
1.00766	629.48
0	204.624
0.010588	317.341
0.097059	404.046
0.202944	420.52
0.303529	431.792
0.405006	440.462
0.505591	449.133
0.606187	457.803
0.709427	464.74
0.811775	473.41
0.910598	488.15
0.96354	558.381
