Adsorption isotherm of Nitrogen on COF-11A
DOI: 10.1002/adma.200800030
Article source: Figure 3
Adsorbate Nitrogen: InChIKey IJGRMHOSHXDMSA-UHFFFAOYSA-N
Kind: experiment
Temperature: 77 K
Tabular data in the source: 0
pressure (bar)	uptake (cm3(STP)/g)
0	1.7341
0	17.341
0.014115	20.8092
0.049416	20.8092
0.101477	22.5434
0.151765	26.0116
0.202944	29.4798
0.25236	29.4798
0.303529	32.948
0.407651	38.1503
0.508246	42.4855
0.60795	47.6879
0.710309	50.289
0.811775	53.7572
0.910598	58.9595
1.00766	65.0289
0.008825	27.7457
0.047643	29.4798
0.098822	32.0809
0.14912	36.4162
0.200299	35.5491
0.250587	37.2832
0.301766	39.8844
0.402362	43.3526
0.50471	46.8208
0.605305	48.5549
0.709427	53.7572
0.808249	57.2254
0.910598	58.9595
1.00766	65.896
