Adsorption isotherm of Nitrogen on COF-16A
DOI: 10.1002/adma.200800030
Article source: Figure 3
Adsorbate Nitrogen: InChIKey IJGRMHOSHXDMSA-UHFFFAOYSA-N
Kind: experiment
Temperature: 77 K
Tabular data in the source: 0
pressure (bar)	uptake (cm3(STP)/g)
0	57.2254
0.001763	116.185
0.008825	173.41
0.047643	211.561
0.104122	227.168
0.151765	230.636
0.202944	237.572
0.254123	241.04
0.305302	247.977
0.404125	253.179
0.506473	280.925
0.612358	293.064
0.709427	296.532
0.810012	310.405
0	65.896
0	124.855
0.005289	164.74
0.201181	242.775
0.254123	247.977
0.402362	260.116
0.50471	277.457
0.605305	287.861
0.709427	296.532
0.810012	312.139
0.914134	346.821
1.00766	489.017
