Adsorption isotherm of Hydrogen on COF-14A
DOI: 10.1002/adma.200800030
Article source: Figure 4
Adsorbate Hydrogen: InChIKey UFHFLCQGNIYNRP-UHFFFAOYSA-N
Kind: experiment
Temperature: 77 K
Tabular data in the source: 0
pressure (bar)	uptake (cm3(STP)/g)
0	5.45455
0.010619	11.8182
0.015928	16.3636
0.104426	54.5454
0.207078	75
0.260172	83.1818
0.307957	89.0909
0.410609	100.455
0.511489	109.545
0.613259	116.591
0.815909	128.182
0.916789	133.636
0.25309	85
0.306184	91.8182
0.407073	102.727
0.504416	111.364
0.610605	118.636
0.711484	124.545
0.812373	129.545
0.911479	134.545
1.01325	137.273
