Adsorption isotherm of Hydrogen on COF-18A
DOI: 10.1002/adma.200800030
Article source: Figure 4
Adsorbate Hydrogen: InChIKey UFHFLCQGNIYNRP-UHFFFAOYSA-N
Kind: experiment
Temperature: 77 K
Tabular data in the source: 0
pressure (bar)	uptake (cm3(STP)/g)
0.053094	39.5454
0.106189	57.7273
0.155747	69.0909
0.208841	80.9091
0.30973	99.5454
0.410609	114.091
0.511489	127.273
0.613259	137.955
0.71503	148.182
0.815909	157.273
0.915026	165.455
0.103534	57.7273
0.153984	71.3636
0.203532	82.7273
0.25309	92.7273
0.306184	101.818
0.407073	116.364
0.507952	129.091
0.608832	139.773
0.711484	149.545
0.8106	158.182
0.913252	165.455
1.01325	172.273
