Adsorption isotherm of Methane on Coal B2-11
DOI: 10.1016/s0166-5162(99)00032-4
Adsorbate Methane: InChIKey VNWKTOKETHGBQD-UHFFFAOYSA-N
Temperature: 303 K
Tabular data in the source: 0
pressure (bar)	uptake (cm3(STP)/g)
1.44737	0.161812
2.89474	0.307443
4.07895	0.372168
5.26316	0.485437
7.36842	0.598706
8.81579	0.679612
10.7895	0.79288
12.3684	0.841424
14.3421	0.889968
16.4474	0.970874
17.6316	1.01942
18.6842	1.05178
20.6579	1.10032
22.2368	1.16505
23.8158	1.21359
26.4474	1.27832
29.4737	1.3754
31.4474	1.40777
34.2105	1.45631
36.9737	1.53722
40.3947	1.58576
43.9474	1.6343
46.0526	1.69903
48.9474	1.73139
