Adsorption isotherm of Carbon Dioxide on Coal D3-3
DOI: 10.1016/s0166-5162(99)00032-4
Adsorbate Carbon Dioxide: InChIKey CURLTUGMZLYLDI-UHFFFAOYSA-N
Temperature: 303 K
Tabular data in the source: 0
pressure (bar)	uptake (cm3(STP)/g)
0.972449	7.00192
4.93917	14.5486
10.9419	19.2324
16.9369	21.9808
26.0823	24.9048
