Adsorption isotherm of Carbon Dioxide on Coal B2-11
DOI: 10.1016/s0166-5162(99)00032-4
Adsorbate Carbon Dioxide: InChIKey CURLTUGMZLYLDI-UHFFFAOYSA-N
Temperature: 303 K
Tabular data in the source: 0
pressure (bar)	uptake (cm3(STP)/g)
0.796136	0.253165
1.72343	0.490506
2.78148	0.696203
4.10393	0.949367
5.02956	1.12342
7.00949	1.36076
8.72543	1.56646
10.4405	1.74051
12.1552	1.89873
14.0015	2.05696
15.0566	2.1519
17.0345	2.31013
18.7471	2.38924
20.1974	2.5
21.9104	2.59494
23.6243	2.72152
25.3369	2.80063
27.313	2.89557
28.8932	2.94304
30.2111	3.02215
32.1873	3.11709
34.1626	3.18038
35.8748	3.24367
37.4554	3.30696
38.9041	3.35443
40.3539	3.44937
43.6463	3.56013
45.2261	3.59177
47.0695	3.63924
48.6505	3.71835
