Adsorption isotherm of Methane on Coal B2-11
DOI: 10.1016/s0166-5162(99)00032-4
Adsorbate Methane: InChIKey VNWKTOKETHGBQD-UHFFFAOYSA-N
Temperature: 303 K
Tabular data in the source: 0
pressure (bar)	uptake (cm3(STP)/g)
2.13478	4.63208
8.20153	8.9976
17.7229	12.8369
28.7974	15.5279
39.0648	17.1785
49.3243	18.4125
