Adsorption isotherm of Methane on Coal C3-2
DOI: 10.1016/s0166-5162(99)00032-4
Adsorbate Methane: InChIKey VNWKTOKETHGBQD-UHFFFAOYSA-N
Temperature: 303 K
Tabular data in the source: 0
pressure (bar)	uptake (cm3(STP)/g)
10.3865	7.95252
18.9601	11.637
29.8662	13.7554
39.8256	15.7711
49.6098	16.8496
59.3949	17.9801
