Adsorption isotherm of Methane on Coal C3-2
DOI: 10.1016/s0166-5162(99)00032-4
Adsorbate Methane: InChIKey VNWKTOKETHGBQD-UHFFFAOYSA-N
Temperature: 303 K
Tabular data in the source: 0
pressure (bar)	uptake (cm3(STP)/g)
0.796872	0.950953
1.43676	1.90199
2.38796	2.64144
3.18351	3.48669
4.605	4.17304
5.23891	4.64839
6.02981	5.12366
6.97703	5.546
7.76726	5.96841
8.71448	6.39074
9.6617	6.81308
11.0812	7.34087
12.1854	7.76312
13.2889	8.13251
14.3925	8.50191
15.4954	8.81845
16.5989	9.18784
17.8588	9.5043
19.5929	10.0848
20.6938	10.2428
21.9536	10.5592
23.2128	10.8228
24.6297	11.1392
25.8889	11.4028
27.3051	11.6663
28.5643	11.9299
30.2944	12.1933
31.7106	12.4568
33.1261	12.6675
34.5416	12.8781
35.9572	13.0888
37.3727	13.2995
38.7882	13.5102
40.3607	13.7207
41.7762	13.9314
43.3481	14.0891
44.7629	14.247
46.3348	14.4047
47.7496	14.5625
50.58	14.931
52.1512	15.0359
53.566	15.1937
55.1372	15.2986
56.552	15.4564
58.1239	15.6141
60.0097	15.7717
61.5815	15.9294
62.9957	16.0344
64.5676	16.1921
66.1387	16.297
