Adsorption isotherm of Carbon Dioxide on Coal D3-3
DOI: 10.1016/s0166-5162(99)00032-4
Adsorbate Carbon Dioxide: InChIKey CURLTUGMZLYLDI-UHFFFAOYSA-N
Temperature: 303 K
Tabular data in the source: 0
pressure (bar)	uptake (cm3(STP)/g)
0.166865	2.51717
0.802122	4.38079
2.37892	6.14941
3.16677	6.89386
4.89909	8.28923
6.62959	9.21841
7.73067	9.77579
8.98875	10.3329
12.4475	11.6318
13.7052	12.0957
15.1199	12.5592
17.6343	13.2072
19.0486	13.5775
20.4629	13.9479
22.0342	14.3179
23.4485	14.6882
24.2342	14.8732
25.6482	15.1503
26.1191	15.1494
27.5331	15.4265
29.1044	15.7965
30.5183	16.0736
32.0889	16.2572
34.1312	16.6263
35.3878	16.8105
36.9584	16.994
38.3723	17.2711
39.9429	17.4547
41.3565	17.6385
42.9275	17.9153
44.498	18.0988
45.5973	18.19
47.0109	18.3739
48.5815	18.5574
50.937	18.7395
52.5075	18.9231
53.9215	19.2001
55.4917	19.2905
56.9049	19.3811
58.4755	19.5646
60.0461	19.7482
