Adsorption isotherm of Methane on Coal D3-3
DOI: 10.1016/s0166-5162(99)00032-4
Adsorbate Methane: InChIKey VNWKTOKETHGBQD-UHFFFAOYSA-N
Temperature: 303 K
Tabular data in the source: 0
pressure (bar)	uptake (cm3(STP)/g)
0.491127	0.988816
0.662382	1.71772
1.79621	3.38261
2.60229	4.37093
3.88178	5.4106
5.63566	6.55369
7.86099	7.64397
9.77038	8.68265
12.1483	9.51227
14.0508	10.1864
16.7436	11.0155
20.7012	12.1031
24.1774	12.7226
27.1833	13.4471
30.6595	14.0667
34.1348	14.6342
38.24	15.2007
41.7153	15.7682
46.1325	16.1779
47.7102	16.3317
49.9188	16.5366
