Adsorption isotherm of Carbon Dioxide on Coal B2-10
DOI: 10.1016/s0166-5162(99)00032-4
Adsorbate Carbon Dioxide: InChIKey CURLTUGMZLYLDI-UHFFFAOYSA-N
Temperature: 303 K
Tabular data in the source: 0
pressure (bar)	uptake (cm3(STP)/g)
0.166913	2.39585
0.809164	5.52772
1.29031	7.73837
2.39774	9.02563
3.03092	9.85337
3.82158	10.6807
4.61224	11.508
6.35031	12.9778
7.29808	13.7125
8.40333	14.4468
9.50822	15.0889
12.3483	16.4636
13.4532	17.1057
14.7152	17.6552
17.8698	18.9368
19.1315	19.3941
20.551	19.9432
21.9701	20.4001
23.2314	20.7653
26.2271	21.6786
27.6458	22.0434
29.065	22.5003
30.4837	22.865
31.9021	23.1376
35.3699	23.9575
36.7883	24.2301
38.3642	24.5022
39.7829	24.867
41.3588	25.1391
42.7768	25.3195
44.0378	25.5925
44.8259	25.7747
46.2443	26.0473
47.8198	26.2272
49.3957	26.4994
50.6562	26.6802
51.9168	26.8611
53.3352	27.1336
54.9107	27.3136
56.4866	27.5858
57.9046	27.7662
59.4801	27.9461
