Adsorption isotherm of Methane on Coal B2-11
DOI: 10.1016/s0166-5162(99)00032-4
Adsorbate Methane: InChIKey VNWKTOKETHGBQD-UHFFFAOYSA-N
Temperature: 303 K
Tabular data in the source: 0
pressure (bar)	uptake (cm3(STP)/g)
1.44737	0.226537
2.89474	0.323625
3.81579	0.436893
5.13158	0.533981
7.89474	0.679612
9.47368	0.760518
10.7895	0.809061
12.3684	0.889968
14.0789	0.970874
15.3947	1.00324
18.0263	1.08414
20.6579	1.16505
21.7105	1.19741
23.4211	1.24595
24.8684	1.27832
26.7105	1.32686
28.6842	1.3754
30.3947	1.40777
32.3684	1.45631
34.0789	1.52104
35.5263	1.53722
37.5	1.60194
39.2105	1.61812
41.5789	1.65049
44.6053	1.69903
46.8421	1.74757
49.2105	1.77994
