Adsorption isotherm of Carbon Dioxide on Coal B2-11
DOI: 10.1016/s0166-5162(99)00032-4
Adsorbate Carbon Dioxide: InChIKey CURLTUGMZLYLDI-UHFFFAOYSA-N
Temperature: 303 K
Tabular data in the source: 0
pressure (bar)	uptake (cm3(STP)/g)
0.486689	4.00842
0.809807	6.33882
1.13036	8.01654
1.92444	10.3461
2.87439	12.3956
4.29384	14.0712
5.24197	15.6546
6.03092	16.6787
6.66069	17.1438
8.23639	18.6327
9.811	19.8418
11.2275	20.7716
12.0157	21.6093
13.4293	21.7931
14.2172	22.5376
15.4756	23.1879
16.5767	23.7453
17.8348	24.3024
19.0929	24.8595
20.3509	25.4166
21.609	25.9737
22.5527	26.4381
23.652	26.5293
24.9101	27.0864
26.3248	27.55
27.5825	28.0138
28.9972	28.4774
30.4115	28.8477
31.8258	29.218
33.2398	29.4951
34.8096	29.4922
35.7541	30.1431
37.1684	30.5134
38.7394	30.7902
40.1533	31.0673
41.5673	31.3444
43.1382	31.6212
44.3948	31.8053
45.4948	32.083
46.9088	32.3601
48.4794	32.5436
50.6805	33.3787
53.9771	33.3725
57.1187	33.8329
60.1028	34.2003
