Adsorption isotherm of Carbon Dioxide on Coal B2-11
DOI: 10.1016/s0166-5162(99)00032-4
Adsorbate Carbon Dioxide: InChIKey CURLTUGMZLYLDI-UHFFFAOYSA-N
Temperature: 303 K
Tabular data in the source: 0
pressure (bar)	uptake (cm3(STP)/g)
0.166187	2.21152
0.173807	4.14698
1.13827	9.12128
2.41008	12.1592
3.83682	14.5516
5.57706	16.5744
7.15874	18.3212
9.05647	20.3436
11.8976	21.9948
14.1081	23.4633
17.265	25.2979
19.6308	26.213
21.2081	26.8538
24.9927	28.1337
28.3048	29.4148
31.2998	30.1439
35.2407	31.1468
38.0786	31.9684
41.2311	32.6971
45.9584	33.4213
49.4251	33.9647
52.8918	34.5081
56.8305	34.9581
60.1387	35.2254
