Adsorption isotherm of Carbon Dioxide on Coal B2-11
DOI: 10.1016/s0166-5162(99)00032-4
Adsorbate Carbon Dioxide: InChIKey CURLTUGMZLYLDI-UHFFFAOYSA-N
Temperature: 303 K
Tabular data in the source: 0
pressure (bar)	uptake (cm3(STP)/g)
2.07862	10.4634
5.86525	16.8115
12.9379	21.7515
22.5176	26.5
34.4415	29.4683
44.1684	31.7866
50.9141	33.2693
