Adsorption isotherm of Methane on Coal B2-10
DOI: 10.1016/s0166-5162(99)00032-4
Adsorbate Methane: InChIKey VNWKTOKETHGBQD-UHFFFAOYSA-N
Temperature: 303 K
Tabular data in the source: 0
pressure (bar)	uptake (cm3(STP)/g)
4.08698	2.89438
10.2011	4.62521
20.6977	6.45459
30.4072	7.54682
41.3666	8.32062
