Adsorption isotherm of Carbon Dioxide on Coal B2-10
DOI: 10.1016/s0166-5162(99)00032-4
Adsorbate Carbon Dioxide: InChIKey CURLTUGMZLYLDI-UHFFFAOYSA-N
Temperature: 303 K
Tabular data in the source: 0
pressure (bar)	uptake (cm3(STP)/g)
0.0069527	1.77155
1.27015	3.634
1.58705	4.37932
2.53481	5.8694
3.79361	6.61297
5.2105	7.63597
6.46931	8.37954
7.57003	8.84369
8.8281	9.40079
12.2862	10.5132
13.7005	10.8835
15.1148	11.2539
17.0001	11.6233
18.2571	11.9007
19.828	12.1775
21.242	12.4546
22.8126	12.6381
24.2265	12.9152
26.1118	13.2846
27.368	13.3755
28.9382	13.4658
30.3518	13.6497
31.9224	13.8332
33.4926	13.9236
34.9062	14.1074
36.4764	14.1977
38.0467	14.288
39.4603	14.4719
41.0305	14.5622
42.6003	14.5593
44.0139	14.7431
45.5838	14.7402
47.1543	14.9237
48.7242	14.9208
50.2944	15.0111
51.8646	15.1014
53.2778	15.192
54.8477	15.1891
56.4179	15.2794
57.9877	15.2765
59.401	15.3671
