Adsorption isotherm of Methane on Coal B2-10
DOI: 10.1016/s0166-5162(99)00032-4
Adsorbate Methane: InChIKey VNWKTOKETHGBQD-UHFFFAOYSA-N
Temperature: 303 K
Tabular data in the source: 0
pressure (bar)	uptake (cm3(STP)/g)
4.01957	4.36872
10.6916	7.43121
20.8134	9.70706
30.2914	11.2548
40.0766	12.3853
49.5428	13.308
59.0061	14.0745
68.7824	14.7363
78.8707	15.2413
