Adsorption isotherm of Methane on Coal D3-3
DOI: 10.1016/s0166-5162(99)00032-4
Adsorbate Methane: InChIKey VNWKTOKETHGBQD-UHFFFAOYSA-N
Temperature: 303 K
Tabular data in the source: 0
pressure (bar)	uptake (cm3(STP)/g)
3.56781	5.46318
10.2418	8.62983
20.5447	12.1554
30.3436	14.0151
41.7143	15.7161
