Adsorption isotherm of Methane on Coal D3-3
DOI: 10.1016/s0166-5162(99)00032-4
Adsorbate Methane: InChIKey VNWKTOKETHGBQD-UHFFFAOYSA-N
Temperature: 303 K
Tabular data in the source: 0
pressure (bar)	uptake (cm3(STP)/g)
10.831	5.25712
20.074	6.82478
29.9403	7.9695
39.6479	8.74528
49.0417	9.41607
58.5904	9.82291
67.9833	10.3355
78.0009	10.6361
