Adsorption isotherm of Carbon Dioxide on Coal C3-2
DOI: 10.1016/s0166-5162(99)00032-4
Adsorbate Carbon Dioxide: InChIKey CURLTUGMZLYLDI-UHFFFAOYSA-N
Temperature: 303 K
Tabular data in the source: 0
pressure (bar)	uptake (cm3(STP)/g)
0.170904	3.40967
0.820776	8.47699
1.45722	10.1342
2.72757	12.8035
3.99538	14.8277
5.57888	17.0353
7.79156	19.0568
10.7927	21.3526
13.951	23.5559
16.9489	25.0223
20.1036	26.3039
24.3627	28.1354
27.5159	29.0483
30.5117	29.9617
34.2955	31.0572
37.133	31.7867
40.9147	32.3293
45.958	33.3291
50.3699	33.9621
54.4673	34.6881
57.3033	35.0489
60.1387	35.2254
