Adsorption isotherm of Methane on Coal B2-11
DOI: 10.1016/s0166-5162(99)00032-4
Adsorbate Methane: InChIKey VNWKTOKETHGBQD-UHFFFAOYSA-N
Temperature: 303 K
Tabular data in the source: 0
pressure (bar)	uptake (cm3(STP)/g)
0.508843	1.92629
1.16434	3.27943
2.13478	4.63208
3.89752	6.24391
4.53628	6.71166
5.17504	7.17941
5.8138	7.64717
6.61004	8.11467
7.2488	8.58242
8.20153	8.9976
9.15623	9.51694
10.109	9.93212
10.9052	10.3996
11.8569	10.7627
12.9671	11.1777
13.9199	11.5928
15.0291	11.9557
16.1383	12.3185
16.9336	12.734
17.7229	12.8369
18.3528	12.8359
19.3055	13.2511
20.4138	13.5619
21.6795	13.8724
22.9452	14.1829
24.2109	14.4934
25.4756	14.7519
26.8988	15.0621
28.1635	15.3206
28.7974	15.5279
29.4273	15.5269
30.5345	15.7856
31.9567	16.0438
33.378	16.2499
34.8002	16.5081
36.2214	16.7142
37.6426	16.9204
38.9063	17.1267
39.0648	17.1785
40.3246	17.1766
41.5893	17.435
43.0105	17.6411
44.5883	17.7949
46.0085	17.9489
47.4297	18.1551
48.6944	18.4135
49.3243	18.4125
50.2692	18.411
51.6904	18.6172
53.2681	18.7709
54.6883	18.925
56.2651	19.0267
57.6853	19.1807
59.1055	19.3347
60.6823	19.4364
62.1025	19.5905
63.6792	19.6922
65.0995	19.8462
