Adsorption isotherm of Carbon Dioxide on Coal B2-11
DOI: 10.1016/s0166-5162(99)00032-4
Adsorbate Carbon Dioxide: InChIKey CURLTUGMZLYLDI-UHFFFAOYSA-N
Temperature: 303 K
Tabular data in the source: 0
pressure (bar)	uptake (cm3(STP)/g)
0.26982	0.253165
0.53964	0.506329
1.07387	0.806962
2.13233	1.02848
3.19121	1.26582
4.38166	1.50316
5.96644	1.72468
7.81437	1.9462
9.52823	2.07278
10.585	2.23101
12.4309	2.37342
14.6723	2.54747
15.859	2.64241
17.7036	2.73734
19.0219	2.83228
20.3394	2.89557
22.1848	3.02215
24.5561	3.13291
27.191	3.25949
29.4308	3.37025
31.1434	3.44937
32.856	3.52848
34.7002	3.60759
36.8067	3.65506
39.3088	3.73418
40.7582	3.81329
42.734	3.89241
44.7094	3.9557
46.9475	4.00316
49.318	4.08228
