Adsorption isotherm of Methane on Coal B2-11
DOI: 10.1016/s0166-5162(99)00032-4
Adsorbate Methane: InChIKey VNWKTOKETHGBQD-UHFFFAOYSA-N
Temperature: 303 K
Tabular data in the source: 0
pressure (bar)	uptake (cm3(STP)/g)
0.167605	0.845577
0.810812	2.06088
1.13142	2.58925
1.45203	3.11763
1.77662	3.96312
2.25355	4.43856
2.88879	5.01961
3.36571	5.49505
3.84331	6.02334
4.47722	6.49869
5.26812	6.97396
5.90203	7.44931
6.69293	7.92458
7.95943	8.76958
8.90665	9.19191
9.85387	9.61424
10.8011	10.0366
11.9053	10.4588
12.8518	10.8283
13.9554	11.1977
15.0589	11.5671
16.1631	11.9893
16.6381	12.3062
18.0516	12.3583
18.9988	12.7807
20.2587	13.0971
21.5185	13.4136
22.7784	13.73
24.0383	14.0465
25.2975	14.3101
26.7136	14.5736
27.9735	14.8901
28.7598	14.9954
29.3877	14.995
30.4899	15.2587
31.9061	15.5222
33.3216	15.7329
34.7371	15.9436
36.1526	16.1543
37.5682	16.3649
38.9837	16.5756
40.2416	16.7335
41.6571	16.9442
43.2289	17.1019
44.6438	17.2597
46.0586	17.4175
47.6305	17.5752
48.7327	17.8389
49.5176	17.8385
50.3025	17.8381
51.718	18.0488
53.1329	18.2066
54.7041	18.3115
56.1189	18.4693
57.6901	18.5742
59.105	18.732
60.6761	18.8369
62.091	18.9947
63.6622	19.0995
65.0764	19.2045
