Adsorption isotherm of Carbon Dioxide on Coal B2-10
DOI: 10.1016/s0166-5162(99)00032-4
Adsorbate Carbon Dioxide: InChIKey CURLTUGMZLYLDI-UHFFFAOYSA-N
Temperature: 303 K
Tabular data in the source: 0
pressure (bar)	uptake (cm3(STP)/g)
1.44634	7.36927
5.56219	12.7957
11.2456	16.3744
16.4511	18.572
25.1229	21.2209
34.2661	23.5919
43.4075	25.5021
49.8699	26.9589
