Adsorption isotherm of Carbon Dioxide on Coal C3-2
DOI: 10.1016/s0166-5162(99)00032-4
Adsorbate Carbon Dioxide: InChIKey CURLTUGMZLYLDI-UHFFFAOYSA-N
Temperature: 303 K
Tabular data in the source: 0
pressure (bar)	uptake (cm3(STP)/g)
0.33007	4.10195
0.809075	6.15234
3.33693	10.2502
5.07218	12.3915
7.1214	14.5322
9.01034	15.834
12.1577	17.7862
14.8316	19.0866
17.3485	20.3872
20.0209	21.3146
23.1649	22.4277
25.8373	23.3551
29.1377	24.2813
33.2218	24.9264
35.7376	25.9473
39.8211	26.4059
43.2777	27.1454
47.2041	27.6043
49.8747	28.0655
51.6026	28.342
54.5868	28.7094
57.8849	29.0762
60.2401	29.1651
