Adsorption isotherm of Methane on Coal B2-10
DOI: 10.1016/s0166-5162(99)00032-4
Adsorbate Methane: InChIKey VNWKTOKETHGBQD-UHFFFAOYSA-N
Temperature: 303 K
Tabular data in the source: 0
pressure (bar)	uptake (cm3(STP)/g)
0.795545	0.845245
1.27314	1.37353
1.75007	1.84897
2.85493	2.32407
4.11878	2.95765
6.16755	3.59082
7.27042	3.90736
8.53095	4.27667
10.1054	4.64582
11.9939	5.0148
13.2531	5.27841
14.6693	5.54193
16.0848	5.7526
17.6573	5.96318
19.0728	6.17385
20.6453	6.38444
21.7462	6.54242
23.1611	6.70023
24.7329	6.85796
26.1478	7.01578
27.7196	7.17351
29.1338	7.27847
30.3917	7.43637
31.6502	7.64712
33.0637	7.69923
34.6349	7.8041
36.0491	7.90906
37.6203	8.01394
39.0345	8.1189
41.7052	8.27605
43.12	8.43387
44.6906	8.48589
46.1048	8.59085
47.6759	8.69573
49.0901	8.80069
