Adsorption isotherm of Carbon Dioxide on Coal D3-3
DOI: 10.1016/s0166-5162(99)00032-4
Adsorbate Carbon Dioxide: InChIKey CURLTUGMZLYLDI-UHFFFAOYSA-N
Temperature: 303 K
Tabular data in the source: 0
pressure (bar)	uptake (cm3(STP)/g)
1.58789	5.23068
5.52064	8.86819
11.3299	11.3807
16.6656	13.053
24.9797	14.8131
34.3902	16.3843
43.4866	17.7692
50.0743	18.9718
