Adsorption isotherm of Carbon Dioxide on Coal D3-3
DOI: 10.1016/s0166-5162(99)00032-4
Adsorbate Carbon Dioxide: InChIKey CURLTUGMZLYLDI-UHFFFAOYSA-N
Temperature: 303 K
Tabular data in the source: 0
pressure (bar)	uptake (cm3(STP)/g)
0.171993	3.68616
0.495658	5.89725
1.13283	7.7388
2.08605	9.85598
3.35676	12.6174
5.88767	15.4676
7.4679	16.8457
9.6784	18.3143
12.5195	19.9654
13.7819	20.6071
14.8864	21.157
18.6714	22.529
19.9334	23.0785
21.3521	23.4433
22.7709	23.808
24.19	24.2649
27.3432	25.1779
28.7613	25.3583
30.1796	25.6308
31.7555	25.903
33.1739	26.1756
34.7498	26.4477
36.1678	26.6281
37.7437	26.9002
39.1617	27.0807
40.7372	27.2606
42.1553	27.441
43.7308	27.621
45.1488	27.8014
46.724	27.8892
48.2995	28.0692
49.7175	28.2496
51.2927	28.3374
52.7107	28.5179
54.2858	28.6057
55.861	28.6935
57.4361	28.7813
58.8538	28.8695
