Adsorption isotherm of Carbon Dioxide on Coal B2-10
DOI: 10.1016/s0166-5162(99)00032-4
Adsorbate Carbon Dioxide: InChIKey CURLTUGMZLYLDI-UHFFFAOYSA-N
Temperature: 303 K
Tabular data in the source: 0
pressure (bar)	uptake (cm3(STP)/g)
1.11145	3.64278
5.20241	7.65383
11.3255	10.2592
17.1303	11.6502
25.9139	13.2226
