Adsorption isotherm of Carbon Dioxide on Coal C3-2
DOI: 10.1016/s0166-5162(99)00032-4
Adsorbate Carbon Dioxide: InChIKey CURLTUGMZLYLDI-UHFFFAOYSA-N
Temperature: 303 K
Tabular data in the source: 0
pressure (bar)	uptake (cm3(STP)/g)
0.175621	4.60781
0.657491	7.00279
6.20988	17.31
12.5297	22.546
22.9425	27.402
34.2937	30.5964
44.0664	32.8735
50.3721	34.5151
