Adsorption isotherm of Carbon Dioxide on Coal B2-11
DOI: 10.1016/s0166-5162(99)00032-4
Adsorbate Carbon Dioxide: InChIKey CURLTUGMZLYLDI-UHFFFAOYSA-N
Temperature: 303 K
Tabular data in the source: 0
pressure (bar)	uptake (cm3(STP)/g)
0.490941	4.6991
1.77472	10.7785
5.89565	17.4952
12.5297	22.546
22.785	27.4024
33.9787	30.5973
44.3814	32.8727
50.6871	34.5142
