Adsorption isotherm of Methane on Coal D3-3
DOI: 10.1016/s0166-5162(99)00032-4
Adsorbate Methane: InChIKey VNWKTOKETHGBQD-UHFFFAOYSA-N
Temperature: 303 K
Tabular data in the source: 0
pressure (bar)	uptake (cm3(STP)/g)
0.637896	0.792475
1.59043	1.63764
3.17554	2.85244
4.75335	3.48586
6.01388	3.85517
7.11676	4.17171
8.21963	4.48826
11.9986	5.38478
13.2578	5.64838
14.6739	5.91191
16.0895	6.12257
17.5056	6.3861
18.9212	6.59676
21.5945	6.96533
23.0101	7.176
24.5819	7.33373
25.9968	7.49155
27.4116	7.64936
28.9828	7.75424
30.8699	8.01751
32.2841	8.12247
33.6983	8.22743
35.2701	8.38516
36.6843	8.49012
38.2562	8.64786
39.1987	8.70021
40.7699	8.80509
41.8701	8.91022
43.4407	8.96224
44.8548	9.0672
46.426	9.17208
47.8402	9.27704
50.5109	9.43419
52.0821	9.53907
53.4957	9.59118
55.0668	9.69605
56.6373	9.74808
58.0515	9.85304
59.4651	9.90515
60.2506	9.95758
61.8212	10.0096
63.2353	10.1146
64.8059	10.1666
66.3764	10.2186
67.7906	10.3236
69.3611	10.3756
70.9316	10.4276
72.3451	10.4797
73.9156	10.5318
75.4861	10.5838
77.0567	10.6358
79.5697	10.7402
81.1402	10.7922
82.5538	10.8443
84.1243	10.8963
85.6948	10.9484
87.1083	11.0005
88.5219	11.0526
89.9354	11.1047
