Adsorption isotherm of Methane on Coal B2-10
DOI: 10.1016/s0166-5162(99)00032-4
Adsorbate Methane: InChIKey VNWKTOKETHGBQD-UHFFFAOYSA-N
Temperature: 303 K
Tabular data in the source: 0
pressure (bar)	uptake (cm3(STP)/g)
0.488175	0.832571
0.817889	1.61331
1.94187	2.75738
2.745	3.58946
3.86307	4.42105
5.2961	5.25214
6.56477	5.71891
7.51749	6.13409
8.62671	6.49694
9.73692	6.91187
12.1138	7.68941
13.2221	8.00017
14.4878	8.3107
15.9109	8.62097
17.1767	8.93149
18.4424	9.24202
19.5496	9.5007
20.8134	9.70706
21.9196	9.91367
23.3418	10.1719
24.6066	10.4303
26.0278	10.6364
27.6065	10.8423
28.8712	11.1007
30.2914	11.2548
31.7126	11.4609
33.1339	11.667
34.7116	11.8208
36.1318	11.9748
37.553	12.1809
38.9733	12.3349
41.1819	12.5398
42.7596	12.6936
44.1798	12.8476
45.7565	12.9493
47.1768	13.1034
50.6471	13.4104
52.2239	13.5122
53.6431	13.6141
55.2208	13.7679
56.6401	13.8698
58.0593	13.9718
59.3201	14.0219
60.4244	14.1243
61.8436	14.2263
63.4204	14.328
64.9971	14.4297
66.4163	14.5316
67.8356	14.6336
68.308	14.6329
69.8838	14.6825
71.303	14.7844
72.8797	14.8861
74.299	14.9881
75.8747	15.0377
77.4515	15.1394
79.974	15.2917
81.5498	15.3413
82.969	15.4433
84.5447	15.4929
86.1215	15.5946
87.5397	15.6445
89.1165	15.7462
