Adsorption isotherm of Methane on Coal C3-2
DOI: 10.1016/s0166-5162(99)00032-4
Adsorbate Methane: InChIKey VNWKTOKETHGBQD-UHFFFAOYSA-N
Temperature: 303 K
Tabular data in the source: 0
pressure (bar)	uptake (cm3(STP)/g)
3.78026	3.89697
10.3728	7.0511
18.8432	10.2023
29.496	11.9786
39.3662	13.7563
49.5442	14.6895
59.2534	15.729
