Adsorption isotherm of Carbon Dioxide on Coal C3-2
DOI: 10.1016/s0166-5162(99)00032-4
Adsorbate Carbon Dioxide: InChIKey CURLTUGMZLYLDI-UHFFFAOYSA-N
Temperature: 303 K
Tabular data in the source: 0
pressure (bar)	uptake (cm3(STP)/g)
0.80237	4.76486
3.3318	10.2741
9.152	15.5904
14.9649	19.0374
23.4412	22.1992
33.4827	24.7972
43.0526	27.0223
50.1106	28.2241
