Adsorption isotherm of Methane on Coal B2-11
DOI: 10.1016/s0166-5162(99)00032-4
Adsorbate Methane: InChIKey VNWKTOKETHGBQD-UHFFFAOYSA-N
Temperature: 303 K
Tabular data in the source: 0
pressure (bar)	uptake (cm3(STP)/g)
0.657895	0.0647249
1.57895	0.113269
2.89474	0.210356
4.07895	0.291262
5.26316	0.355987
6.44737	0.436893
7.63158	0.501618
8.81579	0.566343
10	0.631068
11.1842	0.679612
12.5	0.728155
13.6842	0.79288
15	0.825243
16.1842	0.889968
17.5	0.92233
18.6842	0.970874
20	1.00324
21.1842	1.05178
22.5	1.08414
23.6842	1.1165
25	1.16505
26.3158	1.18123
27.5	1.21359
28.8158	1.24595
30	1.27832
31.3158	1.31068
32.5	1.34304
33.8158	1.35922
35.1316	1.39159
36.3158	1.42395
37.6316	1.45631
38.9474	1.47249
40.1316	1.50485
41.4474	1.52104
42.6316	1.5534
43.9474	1.56958
45.2632	1.58576
46.4474	1.61812
47.7632	1.6343
49.0789	1.65049
50	1.68285
