Adsorption isotherm of Methane on Coal C3-2
DOI: 10.1016/s0166-5162(99)00032-4
Adsorbate Methane: InChIKey VNWKTOKETHGBQD-UHFFFAOYSA-N
Temperature: 303 K
Tabular data in the source: 0
pressure (bar)	uptake (cm3(STP)/g)
1.78833	2.96596
3.86504	4.52521
4.6662	5.25313
6.57658	6.34389
8.64345	7.38233
10.3865	7.95252
11.6621	8.78386
14.3569	9.71715
16.4218	10.6514
17.5339	11.1705
19.276	11.6886
23.0731	12.6202
26.8663	13.3434
29.7068	13.6515
32.2412	14.4288
35.2431	14.9449
37.6121	15.3058
38.7164	15.4083
39.5097	15.7195
42.5076	16.0273
43.9288	16.2334
45.3491	16.3875
46.9277	16.5933
48.348	16.7474
50.5566	16.9523
51.8203	17.1586
53.399	17.3645
54.8192	17.5185
56.397	17.6723
57.8172	17.8263
60.1833	18.031
61.6035	18.185
63.1812	18.3388
64.6014	18.4928
66.1782	18.5945
