Adsorption isotherm of Carbon Dioxide on Coal B2-11
DOI: 10.1016/s0166-5162(99)00032-4
Adsorbate Carbon Dioxide: InChIKey CURLTUGMZLYLDI-UHFFFAOYSA-N
Temperature: 303 K
Tabular data in the source: 0
pressure (bar)	uptake (cm3(STP)/g)
0.794054	0.174051
1.71927	0.332278
2.11817	0.490506
3.04214	0.601266
3.70336	0.727848
4.62775	0.85443
5.42055	0.981013
6.21294	1.09177
7.13733	1.21835
8.06088	1.31329
8.98484	1.42405
9.90839	1.51899
10.9639	1.62975
12.0191	1.72468
13.0742	1.81962
14.1289	1.89873
15.3152	1.97785
16.3703	2.07278
17.5566	2.1519
18.7425	2.21519
19.7972	2.2943
20.9835	2.37342
22.1694	2.43671
23.3553	2.5
24.5416	2.57911
25.8586	2.62658
27.0445	2.68987
28.2303	2.75316
29.4162	2.81646
30.7333	2.86392
31.9187	2.91139
33.2358	2.95886
34.4216	3.02215
35.6071	3.06962
36.9241	3.11709
38.1096	3.16456
39.4266	3.21203
40.6121	3.25949
41.9287	3.29114
43.1142	3.33861
44.4312	3.38608
45.6163	3.41772
46.9329	3.44937
48.1183	3.49684
49.435	3.52848
