Adsorption isotherm of Nitrogen on Bio-MOF-100
DOI: 10.1038/Ncomms1618
Adsorbate Nitrogen: InChIKey IJGRMHOSHXDMSA-UHFFFAOYSA-N
Temperature: 77 K
Tabular data in the source: 0
pressure (bar)	uptake (cm3(STP)/g)
-0.00247366	9.74338
0.00409311	232.079
0.0131335	444.672
0.0417853	569.227
0.0870587	736.226
0.169989	938.354
0.345547	2642.54
0.498114	2743.04
0.641835	2792.05
0.695224	2819.17
0.855211	2890.45
1.05179	2936.31
