Adsorption isotherm of Nitrogen on HCM
DOI: 10.1016/j.powtec.2015.06.016
Article source: Figure 7
Adsorbate Nitrogen: InChIKey IJGRMHOSHXDMSA-UHFFFAOYSA-N
Kind: experiment
Temperature: 77 K
Tabular data in the source: 0
pressure (bar)	uptake (cm3(STP)/g)
0	0
0.011285	0.859704
0.035992	1.28346
0.079811	1.80903
0.0962	1.91171
0.12893	2.00917
0.156311	2.32416
0.18087	2.42422
0.208251	2.73922
0.251973	3.04899
0.26029	3.37007
0.306637	3.46318
0.309507	3.786
0.355805	3.77121
0.358822	4.41773
0.405168	4.51083
0.407745	4.18627
0.429827	4.8267
0.457011	4.7101
0.45993	5.14082
0.484539	5.34878
0.506228	5.12603
0.514692	5.7708
0.528064	5.22696
0.536578	5.97964
0.558169	5.54109
0.566681	6.29376
0.5855	5.74818
0.586039	6.93506
0.612833	5.95527
0.613421	7.25005
0.656554	6.26505
0.662735	7.88178
0.708592	6.8959
0.714921	8.83633
0.763354	7.52589
0.767302	10.2225
0.812718	8.26551
0.814285	11.7182
0.834897	9.12173
0.839383	13.0052
0.862523	9.97622
0.870027	14.5062
0.892921	10.9377
0.895615	16.8721
0.918264	12.7642
0.924074	19.5609
0.935457	20.6364
0.943804	15.0222
0.95837	23.1111
0.972458	18.1425
0.998359	27.199
0.999075	22.7743
1.00526	24.391
1.01441	26.5464
1.0236	28.8096
