Adsorption isotherm of Hydrogen on Mg(HCO2)2
DOI: 10.1002/cssc.200900290
Adsorbate Hydrogen: InChIKey UFHFLCQGNIYNRP-UHFFFAOYSA-N
Temperature: 77 K
Tabular data in the source: 0
pressure (bar)	uptake (wt%)
0.11236	0.558157
0.168539	0.62594
0.224719	0.689737
0.393258	0.765511
0.505618	0.82533
0.674157	0.885157
1.23596	0.968968
1.91011	1.01692
2.64045	1.04494
3.53933	1.07299
4.26966	1.08507
4.83146	1.09313
5.61798	1.09724
6.29213	1.10532
7.02247	1.10943
7.69663	1.11751
8.37079	1.11761
10.4494	1.13389
12.191	1.13417
15.1124	1.15457
16.1798	1.15873
17.1348	1.16287
18.0337	1.16301
18.764	1.16711
19.3258	1.1672
19.9438	1.1673
