Adsorption isotherm of Hydrogen on Mg(HCO2)2
DOI: 10.1002/cssc.200900290
Adsorbate Hydrogen: InChIKey UFHFLCQGNIYNRP-UHFFFAOYSA-N
Temperature: 296 K
Tabular data in the source: 0
pressure (bar)	uptake (wt%)
0.280899	4.48e-05
1.96629	0.00430027
3.70787	0.00856471
5.39326	0.0128202
6.62921	0.017004
8.25843	0.0252372
10.1124	0.0295196
12.0787	0.0338199
14.0449	0.0421068
16.0674	0.0464161
18.1461	0.0467475
20.1685	0.0550435
