Adsorption isotherm of Hydrogen on Mg(HCO2)2
DOI: 10.1002/cssc.200900290
Adsorbate Hydrogen: InChIKey UFHFLCQGNIYNRP-UHFFFAOYSA-N
Temperature: 87 K
Tabular data in the source: 0
pressure (bar)	uptake (wt%)
0.11236	0.358822
0.168539	0.426605
0.224719	0.494388
0.393258	0.554216
0.505618	0.661875
0.730337	0.705764
0.842697	0.757609
1.1236	0.801508
1.40449	0.837433
1.74157	0.869381
2.19101	0.905333
2.47191	0.925311
3.03371	0.949321
3.48315	0.969326
4.1573	0.985381
4.66292	0.997421
5.33708	1.0055
5.89888	1.01755
6.62921	1.02564
7.07865	1.03767
7.86517	1.04179
8.48315	1.04587
9.32584	1.05398
9.94382	1.05408
10.6742	1.06217
11.236	1.05827
12.0225	1.06637
12.6404	1.06647
13.2584	1.07055
14.0449	1.07068
15.2247	1.07087
15.9551	1.07497
16.6292	1.07906
17.191	1.07915
17.9775	1.07529
19.3258	1.08348
20.3933	1.08365
