Adsorption isotherm of Hydrogen on Mg(HCO2)2
DOI: 10.1002/cssc.200900290
Adsorbate Hydrogen: InChIKey UFHFLCQGNIYNRP-UHFFFAOYSA-N
Temperature: 87 K
Tabular data in the source: 0
pressure (bar)	uptake (wt%)
0.561798	0.610056
1.51685	0.817518
6.17978	1.00962
8.65169	1.04191
10.8989	1.05423
14.4382	1.07473
16.573	1.07905
17.6404	1.08321
18.9326	1.0874
19.8876	1.08756
