Adsorption isotherm of Hydrogen on Mg(HCO2)2
DOI: 10.1002/cssc.200900290
Adsorbate Hydrogen: InChIKey UFHFLCQGNIYNRP-UHFFFAOYSA-N
Temperature: 107 K
Tabular data in the source: 0
pressure (bar)	uptake (wt%)
0.505618	0.24327
0.561798	0.291119
0.730337	0.34696
1.01124	0.394846
1.23596	0.434749
1.51685	0.486621
1.85393	0.526541
2.19101	0.562476
2.64045	0.598428
3.08989	0.630393
3.53933	0.658372
4.10112	0.682382
4.66292	0.706391
5.22472	0.730401
5.8427	0.750433
6.46067	0.766479
7.02247	0.782515
7.75281	0.794592
8.37079	0.80665
9.10112	0.822714
9.66292	0.822803
10.4494	0.838876
11.0674	0.850934
11.8539	0.855046
12.5281	0.863127
13.3146	0.871226
13.9888	0.87532
14.5506	0.883383
16.4607	0.891662
17.9775	0.899877
19.382	0.904087
20.5056	0.91224
