Adsorption isotherm of Hydrogen on Mg(HCO2)2
DOI: 10.1002/cssc.200900290
Adsorbate Hydrogen: InChIKey UFHFLCQGNIYNRP-UHFFFAOYSA-N
Temperature: 117 K
Tabular data in the source: 0
pressure (bar)	uptake (wt%)
0.168539	0.0638143
0.337079	0.123642
0.617978	0.187474
0.842697	0.23535
1.1236	0.283236
1.46067	0.347077
1.79775	0.402944
2.47191	0.462853
3.20225	0.514796
3.93258	0.562753
4.77528	0.598768
5.73034	0.638788
6.57303	0.662842
7.75281	0.694924
8.70787	0.71501
9.83146	0.735123
10.8989	0.75124
12.0787	0.767375
14.5506	0.795676
16.573	0.807958
18.427	0.820214
19.8876	0.824434
