Adsorption isotherm of Hydrogen on Mg(HCO2)2
DOI: 10.1002/cssc.200900290
Adsorbate Hydrogen: InChIKey UFHFLCQGNIYNRP-UHFFFAOYSA-N
Temperature: 97 K
Tabular data in the source: 0
pressure (bar)	uptake (wt%)
0.168539	0.207336
0.280899	0.259181
0.337079	0.326964
0.449438	0.386783
0.561798	0.454575
0.674157	0.502433
0.898876	0.558283
1.17978	0.602181
1.40449	0.642084
1.74157	0.682005
2.07865	0.713953
2.47191	0.749896
2.86517	0.773879
3.37079	0.80984
4.10112	0.84185
4.83146	0.865887
5.67416	0.889941
6.46067	0.913987
7.47191	0.926108
8.25843	0.942181
9.21348	0.954293
10.0562	0.966388
11.0112	0.9785
11.9101	0.986617
12.9775	0.994761
13.9326	1.00289
14.9438	1.01102
15.8989	1.01117
17.0225	1.01534
17.9213	1.02346
18.9888	1.0316
19.8876	1.03573
