Adsorption isotherm of Nitrogen on Sorbomorit-4
DOI: 10.1007/s10450-022-00370-y
Article source: Figure 2
Adsorbate Nitrogen: InChIKey IJGRMHOSHXDMSA-UHFFFAOYSA-N
Kind: experiment
Isotherm type: excess
Temperature: 77 K
Tabular data in the source: 0
pressure (bar)	uptake (mmol/g)
0	0.019441
0	6.79465
0	8.69988
0	9.06926
0	9.31227
0.000828	9.55529
0.000414	10.158
0.002485	10.4787
0.002071	10.712
0.004142	10.9064
0.005385	11.2661
0.009113	11.5772
0.014084	11.9757
0.024026	12.52
0.040182	13.113
0.089892	13.9392
0.142501	14.1823
0.202981	14.3183
0.255177	14.4058
0.309857	14.4642
0.512839	14.4836
0.614744	14.4933
0.71582	14.4933
0.817725	14.503
0.917973	14.503
0.965612	14.5516
0.408863	14.503
0	8.13609
1.00372	14.6294
0.959398	14.6488
0.915902	14.6488
0.804055	14.6877
0.714577	14.6877
0.601073	14.7363
0.511182	14.7461
0.409277	14.503
0.299087	14.4544
0.195525	14.3572
0.106047	14.0753
