Adsorption isotherm of Nitrogen on [Mg16(PTCA)8(mu2-H2O)8(H2O)16(dioxane)8]*(H2O)13*(DMF)26
DOI: 10.1039/C3cc38730e
Adsorbate Nitrogen: InChIKey IJGRMHOSHXDMSA-UHFFFAOYSA-N
Temperature: 298 K
Tabular data in the source: 0
pressure (bar)	uptake (cm3(STP)/g)
0.0232293	0.43478
0.0786283	0.575626
0.134027	0.622574
0.209145	0.669522
0.260788	0.857316
0.287079	0.951212
0.3406	0.998161
0.392243	1.18595
0.500225	1.3268
0.552807	1.37375
0.621351	1.60849
0.684262	1.70239
0.755624	1.79628
0.818534	1.79628
0.885201	1.93713
0.973464	2.07797
