Adsorption isotherm of Nitrogen on [Mg16(PTCA)8(mu2-H2O)8(H2O)16(dioxane)8]*(H2O)13*(DMF)26
DOI: 10.1039/C3cc38730e
Adsorbate Nitrogen: InChIKey IJGRMHOSHXDMSA-UHFFFAOYSA-N
Temperature: 273 K
Tabular data in the source: 0
pressure (bar)	uptake (cm3(STP)/g)
0.0774495	0.845833
0.161957	1.26837
0.215478	1.40921
0.26759	1.55006
0.34083	1.6909
0.391534	1.83175
0.452097	1.97259
0.497168	2.11344
0.550689	2.32471
0.621112	2.53597
0.687309	2.67682
0.754914	3.02893
0.818295	3.16978
0.884492	3.59231
0.94083	3.80358
0.973224	3.874
1.00139	3.94442
