Adsorption isotherm of Oxygen on [Mg16(PTCA)8(mu2-H2O)8(H2O)16(dioxane)8]*(H2O)13*(DMF)26
DOI: 10.1039/C3cc38730e
Adsorbate Oxygen: InChIKey MYMOFIZGZYHOMD-UHFFFAOYSA-N
Temperature: 298 K
Tabular data in the source: 0
pressure (bar)	uptake (cm3(STP)/g)
0.327455	1.27985
0.372525	1.4207
0.424168	1.46764
0.47675	1.56154
0.533088	1.46764
0.607267	1.56154
0.640131	1.74933
0.708675	1.93713
0.739661	2.03102
0.775342	2.12492
0.836375	2.31271
0.938722	2.5944
1.00445	2.7822
