Adsorption isotherm of Carbon Dioxide on [Mg16(PTCA)8(mu2-H2O)8(H2O)16(dioxane)8]*(H2O)13*(DMF)26
DOI: 10.1039/C3cc38730e
Adsorbate Carbon Dioxide: InChIKey CURLTUGMZLYLDI-UHFFFAOYSA-N
Temperature: 273 K
Tabular data in the source: 0
pressure (bar)	uptake (cm3(STP)/g)
0.0295622	4.71907
0.0844918	10.1416
0.132379	13.9444
0.188717	17.3247
0.266182	21.4092
0.374633	25.7754
0.481675	30.0008
0.5859	33.3106
0.694351	36.6205
0.794351	39.2261
0.905619	42.043
0.954914	43.0289
1.00421	44.367
