Adsorption isotherm of Nitrogen on [Mg16(PTCA)8(mu2-H2O)8(H2O)16(dioxane)8]*(H2O)13*(DMF)26
DOI: 10.1039/C3cc38730e
Adsorbate Nitrogen: InChIKey IJGRMHOSHXDMSA-UHFFFAOYSA-N
Temperature: 77 K
Tabular data in the source: 0
pressure (bar)	uptake (cm3(STP)/g)
0.00873556	64.3915
0.023037	81.9346
0.0478261	98.5242
0.0659413	104.626
0.103125	109.203
0.145076	111.11
0.184166	112.635
0.206095	113.398
0.25186	114.351
0.404408	115.686
0.554097	116.83
0.700925	117.974
0.801988	119.118
0.877309	120.072
0.927841	121.407
0.993627	123.123
