Adsorption isotherm of Carbon Dioxide on [Mg16(PTCA)8(mu2-H2O)8(H2O)16(dioxane)8]*(H2O)13*(DMF)26
DOI: 10.1039/C3cc38730e
Adsorbate Carbon Dioxide: InChIKey CURLTUGMZLYLDI-UHFFFAOYSA-N
Temperature: 298 K
Tabular data in the source: 0
pressure (bar)	uptake (cm3(STP)/g)
0.00984391	1.0571
0.0295622	2.53597
0.0802664	4.71907
0.136604	6.76133
0.187309	8.52189
0.26759	10.7754
0.373224	13.3106
0.480266	15.705
0.583083	17.536
0.690126	19.367
0.795759	21.0571
0.898576	22.3951
0.957731	23.2402
1.00421	23.874
