Adsorption isotherm of Carbon Dioxide on [Mg16(PTCA)8(mu2-H2O)8(H2O)16(dioxane)8]*(H2O)13*(DMF)26
DOI: 10.1039/C3cc38730e
Adsorbate Carbon Dioxide: InChIKey CURLTUGMZLYLDI-UHFFFAOYSA-N
Temperature: 195 K
Tabular data in the source: 0
pressure (bar)	uptake (cm3(STP)/g)
0.00301498	2.80001
0.0068287	16.3387
0.0115958	32.3563
0.016363	43.9881
0.0325713	59.815
0.0554536	73.7351
0.0659413	80.2184
0.113613	99.0963
0.127914	105.198
0.155564	120.072
0.191794	134.182
0.207049	137.615
0.250906	141.429
0.359597	146.768
0.45208	149.819
0.527401	152.298
0.601768	153.632
0.676136	155.349
0.750503	156.683
0.847753	158.209
0.948816	159.544
