Adsorption isotherm of Oxygen on [Mg16(PTCA)8(mu2-H2O)8(H2O)16(dioxane)8]*(H2O)13*(DMF)26
DOI: 10.1039/C3cc38730e
Adsorbate Oxygen: InChIKey MYMOFIZGZYHOMD-UHFFFAOYSA-N
Temperature: 77 K
Tabular data in the source: 0
pressure (bar)	uptake (cm3(STP)/g)
0.00396841	43.6068
0.00396841	54.8572
0.00587527	102.91
0.0068287	80.5998
0.0068287	113.207
0.0068287	132.657
0.0115958	174.608
0.0859633	191.96
0.103125	194.63
0.126961	195.965
0.169865	198.825
0.19084	200.16
