Adsorption isotherm of Oxygen on [Mg16(PTCA)8(mu2-H2O)8(H2O)16(dioxane)8]*(H2O)13*(DMF)26
DOI: 10.1039/C3cc38730e
Adsorbate Oxygen: InChIKey MYMOFIZGZYHOMD-UHFFFAOYSA-N
Temperature: 273 K
Tabular data in the source: 0
pressure (bar)	uptake (cm3(STP)/g)
0.0253369	0.564143
0.0816749	0.916255
0.108435	1.12752
0.163365	1.40921
0.242238	1.6909
0.318295	1.90217
0.373224	2.18386
0.425337	2.39513
0.478858	2.67682
0.597168	3.31062
0.633788	3.45147
0.695759	3.80358
0.764773	3.94442
0.832379	4.36696
0.880266	4.57823
0.976041	5.14161
