Adsorption isotherm of Hydrogen on [Mg16(PTCA)8(mu2-H2O)8(H2O)16(dioxane)8]*(H2O)13*(DMF)26
DOI: 10.1039/C3cc38730e
Adsorbate Hydrogen: InChIKey UFHFLCQGNIYNRP-UHFFFAOYSA-N
Temperature: 77 K
Tabular data in the source: 0
pressure (bar)	uptake (cm3(STP)/g)
0.0106424	5.6603
0.0325713	16.3387
0.0554536	22.822
0.0840564	32.7377
0.140309	42.272
0.211816	50.0901
0.264254	54.8572
0.326227	60.0057
0.459707	68.5866
0.589374	75.8326
0.715226	80.7905
0.842986	85.7483
0.911633	88.0365
0.993627	90.7061
