Adsorption isotherm of Ammonia on CuBTC/Graphite Oxide
DOI: 10.1021/La202924y
Adsorbate Ammonia: InChIKey QGZKDVFQNNGYKY-UHFFFAOYSA-N
Temperature: 318 K
Tabular data in the source: 0
pressure (bar)	uptake (mmol/g)
0.00303215	2.85276
0.00390157	2.94479
0.00489531	3.12883
0.00614214	3.31288
0.00770655	3.54294
0.012442	4.18712
0.0148433	4.5092
0.0177084	4.73926
0.0216656	4.92331
0.0252034	5.19939
0.0308354	5.42945
0.0367866	5.6135
0.045007	5.75153
0.0536945	5.88957
0.0624626	6.07362
0.080373	6.16564
0.0983332	6.30368
0.120307	6.53374
0.147192	6.53374
0.180084	6.7638
0.225951	6.85583
0.269561	7.03988
0.329798	7.1319
0.403496	7.22393
0.493663	7.31595
0.6194	7.54601
0.777161	7.68405
0.950828	7.96012
1.19301	8.42025
