Adsorption isotherm of Ammonia on CuBTC/Graphite Oxide
DOI: 10.1021/La202924y
Adsorbate Ammonia: InChIKey QGZKDVFQNNGYKY-UHFFFAOYSA-N
Temperature: 301 K
Tabular data in the source: 0
pressure (bar)	uptake (mmol/g)
0.0223418	5.92696
0.0437418	7.17795
0.0619807	7.73435
0.0922764	8.15242
0.128624	8.61707
0.143748	8.71036
0.170986	8.9431
0.204265	9.17612
0.231493	9.36257
0.267775	9.50314
0.291972	9.64315
0.334297	9.784
0.361525	9.97044
0.452253	10.4376
0.476432	10.485
0.506653	10.5327
0.585288	10.953
0.609466	11.0004
0.639687	11.0481
0.790877	11.7033
0.815056	11.7507
0.845277	11.7984
0.854368	11.9377
0.878547	11.9851
0.905756	12.079
0.920899	12.2649
0.942047	12.2658
0.972269	12.3135
1.00251	12.4538
1.063	12.7807
1.12649	13.0151
1.15068	13.1088
1.17788	13.1564
1.19301	13.296
