Adsorption isotherm of Ammonia on CuBTC/Graphite Oxide
DOI: 10.1021/La202924y
Adsorbate Ammonia: InChIKey QGZKDVFQNNGYKY-UHFFFAOYSA-N
Temperature: 348 K
Tabular data in the source: 0
pressure (bar)	uptake (mmol/g)
0.00367468	2.01835
0.00471965	2.15596
0.00591208	2.29358
0.00740577	2.47706
0.00927662	2.66055
0.0149249	3.07339
0.0182335	3.25688
0.0437824	4.12844
0.0483927	4.3578
0.0798307	4.90826
0.105133	5.22936
0.2284	6.00917
0.293353	6.37615
