Adsorption isotherm of Ammonia on CuBTC/Graphite Oxide
DOI: 10.1021/La202924y
Adsorbate Ammonia: InChIKey QGZKDVFQNNGYKY-UHFFFAOYSA-N
Temperature: 348 K
Tabular data in the source: 0
pressure (bar)	uptake (mmol/g)
0.0370557	3.98148
0.0522174	4.25926
0.0673791	4.53704
0.0946347	4.86111
0.133984	5.23148
0.19147	5.64815
0.264052	6.01852
0.333604	6.34259
0.403127	6.52778
0.47266	6.75926
0.53009	6.89815
0.596583	7.03704
0.660065	7.22222
0.72957	7.31481
0.796045	7.36111
0.862538	7.5
0.932033	7.5463
0.998508	7.59259
1.06498	7.63889
1.13448	7.68519
1.20094	7.68519
