Adsorption isotherm of Ammonia on CuBTC/Graphite Oxide
DOI: 10.1021/La202924y
Adsorbate Ammonia: InChIKey QGZKDVFQNNGYKY-UHFFFAOYSA-N
Temperature: 318 K
Tabular data in the source: 0
pressure (bar)	uptake (mmol/g)
0.0252135	5.18519
0.0404498	5.83333
0.0526183	6.25
0.0647589	6.52778
0.0981034	7.08333
0.134432	7.4537
0.149556	7.5463
0.173772	7.77778
0.225215	8.19444
0.252434	8.33333
0.282682	8.51852
0.312913	8.61111
0.346192	8.84259
0.373392	8.88889
0.418755	9.12037
0.448976	9.16667
0.554782	9.49074
0.585012	9.58333
0.624324	9.76852
0.651524	9.81481
0.687805	9.9537
0.715005	10
0.811738	10.2778
0.841959	10.3241
0.884292	10.5093
0.914503	10.5093
0.944743	10.6481
0.971942	10.6944
1.08076	10.9722
1.10796	11.0185
1.15028	11.1574
1.17748	11.2037
1.20469	11.2963
