Adsorption isotherm of Ammonia on CuBTC/Graphite Oxide
DOI: 10.1021/La202924y
Adsorbate Ammonia: InChIKey QGZKDVFQNNGYKY-UHFFFAOYSA-N
Temperature: 318 K
Tabular data in the source: 0
pressure (bar)	uptake (mmol/g)
0.00116204	2.01835
0.00149249	2.15596
0.00186956	2.29358
0.00234191	2.47706
0.00293353	2.61468
0.00376782	2.79817
0.00471965	2.98165
0.00591208	3.16514
0.00740577	3.3945
0.00927662	3.57798
0.0113331	3.80734
0.0191695	4.44954
0.0272132	4.77064
0.0324243	4.90826
0.0416457	5.18349
0.0521663	5.50459
0.0670023	5.73394
0.0951174	6.10092
0.135031	6.42202
0.196552	6.74312
0.496195	7.43119
0.798314	7.84404
1.02534	8.21101
1.22168	8.3945
