Adsorption isotherm of Ammonia on CuBTC
DOI: 10.1021/La202924y
Adsorbate Ammonia: InChIKey QGZKDVFQNNGYKY-UHFFFAOYSA-N
Temperature: 318 K
Tabular data in the source: 0
pressure (bar)	uptake (mmol/g)
0.00129125	2.07692
0.00154127	2.4
0.00183975	2.72308
0.0022519	3
0.00275645	3.27692
0.00337396	3.55385
0.00412952	3.78462
0.00518334	4.01538
0.00650609	4.24615
0.00796306	4.47692
0.00999425	4.66154
0.011927	4.84615
0.0149692	5.03077
0.0187893	5.26154
0.0303564	5.67692
0.0432285	6
0.0585221	6.23077
0.115712	6.83077
0.173313	7.2
0.228791	7.43077
0.309762	7.70769
1.27521	9.64615
1.48415	9.92308
