Adsorption isotherm of Ammonia on CuBTC/Graphite Oxide
DOI: 10.1021/La202924y
Adsorbate Ammonia: InChIKey QGZKDVFQNNGYKY-UHFFFAOYSA-N
Temperature: 301 K
Tabular data in the source: 0
pressure (bar)	uptake (mmol/g)
0.00717996	5.64848
0.0101359	5.32454
0.0194325	6.48238
0.0225469	6.94549
0.0316478	7.13109
0.0377461	7.40915
0.0529545	7.91912
0.0681163	8.1976
0.0923603	8.56909
0.128726	9.12633
0.1469	9.35865
0.171125	9.63755
0.216518	10.01
0.243736	10.1502
0.286098	10.4762
0.313316	10.6164
0.349627	10.8958
0.376836	10.9897
0.416158	11.223
0.446388	11.317
0.467564	11.4568
0.482689	11.5501
0.509898	11.644
0.537126	11.8304
0.55225	11.9237
0.57945	11.9713
0.606669	12.1114
0.621784	12.1584
0.648993	12.2523
0.673181	12.346
0.727609	12.58
0.745764	12.7197
0.772964	12.7673
0.803204	12.9076
0.818328	13.0008
0.845538	13.0947
0.890893	13.282
0.921123	13.376
0.942281	13.4233
0.99973	13.6574
1.01183	13.7505
1.04206	13.8445
1.07229	13.9385
1.08742	14.0318
1.11463	14.1257
1.14184	14.2195
1.19626	14.4072
