Adsorption isotherm of Ammonia on CuBTC/Graphite Oxide
DOI: 10.1021/La202924y
Adsorbate Ammonia: InChIKey QGZKDVFQNNGYKY-UHFFFAOYSA-N
Temperature: 348 K
Tabular data in the source: 0
pressure (bar)	uptake (mmol/g)
0.012411	1.62037
0.0185931	2.31481
0.0278337	3.19444
0.049103	3.7963
0.0914923	4.25926
0.13087	4.76852
0.197382	5
0.266915	5.23148
0.330396	5.41667
0.399901	5.50926
0.466376	5.55556
0.535881	5.64815
0.593311	5.78704
0.66883	5.74074
0.729272	5.83333
0.804819	5.92593
0.862211	5.87963
0.937759	5.97222
0.992149	6.01852
1.0677	6.11111
1.13121	6.43519
