Adsorption isotherm of Ammonia on CuBTC
DOI: 10.1021/La202924y
Adsorbate Ammonia: InChIKey QGZKDVFQNNGYKY-UHFFFAOYSA-N
Temperature: 301 K
Tabular data in the source: 0
pressure (bar)	uptake (mmol/g)
0.0194512	6.57497
0.0406926	7.03892
0.0679765	7.50315
0.0922111	7.82834
0.13157	8.24683
0.192068	8.62
0.267663	8.94758
0.340227	9.22871
0.394646	9.41642
0.470231	9.6977
0.530692	9.88568
0.606277	10.167
0.666729	10.3086
0.739293	10.5898
0.796723	10.7313
0.857184	10.9193
0.93277	11.2006
0.996252	11.3887
1.07184	11.67
1.1323	11.858
1.20486	12.1391
