Adsorption isotherm of Ammonia on CuBTC/Graphite Oxide
DOI: 10.1021/La202924y
Adsorbate Ammonia: InChIKey QGZKDVFQNNGYKY-UHFFFAOYSA-N
Temperature: 318 K
Tabular data in the source: 0
pressure (bar)	uptake (mmol/g)
0.0128212	3.65741
0.0189941	4.30556
0.0341651	4.62963
0.0402913	5.0463
0.0705774	5.41667
0.100854	5.74074
0.137173	6.06481
0.200683	6.38889
0.264173	6.62037
0.330667	6.75926
0.397169	6.94444
0.463644	6.99074
0.536161	7.03704
0.599633	7.17593
0.669147	7.31481
0.729579	7.36111
0.796063	7.4537
0.865559	7.5
0.932043	7.59259
0.998527	7.68519
1.13452	7.87037
1.20401	7.91667
