Adsorption isotherm of Ammonia on CuBTC
DOI: 10.1021/La202924y
Adsorbate Ammonia: InChIKey QGZKDVFQNNGYKY-UHFFFAOYSA-N
Temperature: 301 K
Tabular data in the source: 0
pressure (bar)	uptake (mmol/g)
0.000724419	3.18462
0.000886707	3.46154
0.00108528	3.69231
0.00136223	3.92308
0.00170986	4.15385
0.002146	4.33846
0.00269364	4.56923
0.0033808	4.75385
0.00424356	4.98462
0.00532599	5.16923
0.00668467	5.35385
0.00838977	5.53846
0.0105308	5.76923
0.0132151	5.86154
0.0157718	6.09231
0.0224595	6.41538
0.0432922	6.87692
0.0632281	7.24615
0.187264	8.26154
0.273542	8.72308
0.334825	9
0.465076	9.50769
