Adsorption isotherm of Ammonia on CuBTC/Graphite Oxide
DOI: 10.1021/La202924y
Adsorbate Ammonia: InChIKey QGZKDVFQNNGYKY-UHFFFAOYSA-N
Temperature: 301 K
Tabular data in the source: 0
pressure (bar)	uptake (mmol/g)
0.000740577	2.76923
0.000927662	3
0.00113331	3.23077
0.00141961	3.46154
0.00177828	3.69231
0.0021725	3.92308
0.00272132	4.15385
0.00332461	4.43077
0.00416457	4.66154
0.00508768	4.89231
0.00621556	5.16923
0.00778574	5.4
0.013503	6.09231
0.0286101	6.96923
0.0448921	7.56923
0.0521663	7.75385
0.0621556	8.12308
0.081854	8.4
0.0975282	8.63077
0.125264	9.09231
0.153032	9.32308
0.234188	9.96923
