Adsorption isotherm of Ammonia on CuBTC/Graphite Oxide
DOI: 10.1021/La202924y
Adsorbate Ammonia: InChIKey QGZKDVFQNNGYKY-UHFFFAOYSA-N
Temperature: 318 K
Tabular data in the source: 0
pressure (bar)	uptake (mmol/g)
0.0190034	4.35185
0.0402913	5.0463
0.0524318	5.32407
0.0676215	5.74074
0.0888068	5.92593
0.13418	6.2037
0.200683	6.38889
0.267194	6.62037
0.33669	6.66667
0.406214	6.85185
0.472698	6.94444
0.536151	6.99074
0.608687	7.12963
0.660065	7.22222
0.735594	7.22222
0.802087	7.36111
0.868561	7.40741
0.941088	7.5
1.00759	7.68519
1.07709	7.73148
1.14359	7.91667
