Adsorption isotherm of Ammonia on Graphite Oxide
DOI: 10.1021/La202924y
Adsorbate Ammonia: InChIKey QGZKDVFQNNGYKY-UHFFFAOYSA-N
Temperature: 318 K
Tabular data in the source: 0
pressure (bar)	uptake (mmol/g)
0.0362911	0.185185
0.0695424	0.277778
0.105805	0.324074
0.217616	0.462963
0.281069	0.509259
0.350574	0.601852
0.417058	0.694444
0.486545	0.694444
0.550017	0.833333
0.619513	0.87963
0.685996	0.972222
0.746429	1.01852
0.815934	1.11111
0.885429	1.15741
0.948892	1.25
1.01537	1.2963
1.07885	1.48148
1.14834	1.52778
1.21484	1.66667
