Adsorption isotherm of Ammonia on CuBTC
DOI: 10.1021/La202924y
Adsorbate Ammonia: InChIKey QGZKDVFQNNGYKY-UHFFFAOYSA-N
Temperature: 348 K
Tabular data in the source: 0
pressure (bar)	uptake (mmol/g)
0.0092255	2.03077
0.0138283	2.86154
0.0182633	3.36923
0.0229224	3.55385
0.0409817	4.24615
0.0514352	4.43077
0.0714282	4.8
0.0896561	5.03077
0.148557	5.49231
0.181824	5.72308
0.286463	6.18462
0.407902	6.46154
0.8923	7.2
1.37071	7.61538
1.7647	7.93846
2.15988	8.16923
2.71106	8.4
3.31842	8.67692
3.96075	8.95385
4.84846	9.27692
5.78738	9.6
