Adsorption isotherm of Ammonia on CuBTC
DOI: 10.1021/La202924y
Adsorbate Ammonia: InChIKey QGZKDVFQNNGYKY-UHFFFAOYSA-N
Temperature: 318 K
Tabular data in the source: 0
pressure (bar)	uptake (mmol/g)
0.0676495	5.87963
0.0888535	6.15741
0.134245	6.52778
0.200785	6.89815
0.267306	7.17593
0.33683	7.36111
0.403333	7.5463
0.47888	7.63889
0.50911	7.73148
0.542352	7.77778
0.596761	7.91667
0.614888	7.91667
0.645118	8.00926
0.681381	8.05556
0.70858	8.10185
0.726707	8.10185
0.744844	8.14815
0.775064	8.19444
0.796212	8.19444
0.814349	8.24074
0.844569	8.28704
0.859684	8.33333
0.880832	8.33333
0.911053	8.37963
0.92919	8.42593
0.947316	8.42593
0.977547	8.51852
0.995673	8.51852
1.01381	8.56481
1.04403	8.61111
1.06519	8.65741
1.08331	8.65741
1.11354	8.75
1.12863	8.65741
1.1498	8.75
1.18002	8.7963
1.2042	8.84259
