Adsorption isotherm of Ammonia on CuBTC/Graphite Oxide
DOI: 10.1021/La202924y
Adsorbate Ammonia: InChIKey QGZKDVFQNNGYKY-UHFFFAOYSA-N
Temperature: 348 K
Tabular data in the source: 0
pressure (bar)	uptake (mmol/g)
0.0156559	2.73148
0.0278337	3.19444
0.0430141	3.56481
0.0551546	3.84259
0.0733188	4.02778
0.0915016	4.30556
0.13086	4.72222
0.191367	5.13889
0.263931	5.41667
0.330433	5.60185
0.399948	5.74074
0.460399	5.87963
0.526873	5.92593
0.59939	5.97222
0.665874	6.06481
0.735379	6.15741
0.801863	6.25
0.865316	6.2963
0.934803	6.2963
0.992223	6.38889
1.06473	6.38889
1.13121	6.43519
1.2007	6.48148
