Adsorption isotherm of Ammonia on CuBTC/Graphite Oxide
DOI: 10.1021/La202924y
Adsorbate Ammonia: InChIKey QGZKDVFQNNGYKY-UHFFFAOYSA-N
Temperature: 348 K
Tabular data in the source: 0
pressure (bar)	uptake (mmol/g)
0.00496192	2.03077
0.00606192	2.26154
0.00759329	2.49231
0.0164964	3.32308
0.0186956	3.6
0.0228402	3.78462
0.0316228	4.2
0.0562341	4.93846
0.0904732	5.49231
0.116203	5.86154
0.128439	6.09231
0.15691	6.27692
0.186956	6.6
0.2284	6.78462
1.13331	9.23077
1.35031	9.55385
1.60887	9.87692
