Adsorption isotherm of Ammonia on Graphite Oxide
DOI: 10.1021/La202924y
Adsorbate Ammonia: InChIKey QGZKDVFQNNGYKY-UHFFFAOYSA-N
Temperature: 348 K
Tabular data in the source: 0
pressure (bar)	uptake (mmol/g)
0.0811129	0.23536
0.109648	0.271902
0.168056	0.332872
0.210686	0.351076
0.257578	0.387708
0.331131	0.436564
0.384995	0.48551
