Adsorption isotherm of Ammonia on CuBTC/Graphite Oxide
DOI: 10.1021/La202924y
Adsorbate Ammonia: InChIKey QGZKDVFQNNGYKY-UHFFFAOYSA-N
Temperature: 301 K
Tabular data in the source: 0
pressure (bar)	uptake (mmol/g)
0.012868	3.88948
0.0190129	4.39903
0.0311908	4.86256
0.040329	5.23335
0.0524976	5.65058
0.0676594	5.92906
0.0828399	6.30013
0.101004	6.48616
0.113154	6.81079
0.137352	6.9508
0.158546	7.18327
0.17976	7.50832
0.20696	7.55588
0.231167	7.74218
0.255392	8.02108
0.282583	8.02234
0.30981	8.20879
0.334008	8.3488
0.361226	8.48895
0.388454	8.67539
0.415654	8.72295
0.439842	8.81666
0.467051	8.91051
0.49427	9.05066
0.521489	9.19081
0.548688	9.23837
0.575907	9.37851
0.606137	9.47251
0.636368	9.5665
0.660575	9.7528
0.690796	9.8005
0.718014	9.94065
0.748226	9.94205
0.772423	10.0821
0.805684	10.2225
0.835915	10.3165
0.863124	10.4103
0.890333	10.5042
0.917552	10.6443
0.947773	10.692
0.974982	10.7859
1.00521	10.8799
1.03242	10.9737
1.07475	11.1146
1.10196	11.2084
1.14732	11.442
1.17754	11.4897
1.20173	11.5834
