Adsorption isotherm of Ammonia on Graphite Oxide
DOI: 10.1021/La202924y
Adsorbate Ammonia: InChIKey QGZKDVFQNNGYKY-UHFFFAOYSA-N
Temperature: 318 K
Tabular data in the source: 0
pressure (bar)	uptake (mmol/g)
0.0811129	0.302844
0.101689	0.333318
0.130727	0.357635
0.155857	0.394289
0.195393	0.430898
0.227177	0.473709
0.314907	0.559308
0.394788	0.644997
0.459006	0.712348
0.520432	0.798126
0.590077	0.865499
0.686063	0.96966
