Adsorption isotherm of Ammonia on CuBTC
DOI: 10.1021/La202924y
Adsorbate Ammonia: InChIKey QGZKDVFQNNGYKY-UHFFFAOYSA-N
Temperature: 348 K
Tabular data in the source: 0
pressure (bar)	uptake (mmol/g)
0.0124855	1.99074
0.0124949	2.03704
0.0218287	3.37963
0.037037	3.88889
0.0673511	4.39815
0.0915669	4.62963
0.130898	4.90741
0.200449	5.23148
0.266952	5.41667
0.396927	5.74074
0.668886	6.01852
0.865261	6.01852
0.931735	6.06481
0.998219	6.15741
1.06771	6.2037
1.13722	6.2963
1.20067	6.34259
