Adsorption isotherm of Ammonia on CuBTC
DOI: 10.1021/La202924y
Adsorbate Ammonia: InChIKey QGZKDVFQNNGYKY-UHFFFAOYSA-N
Temperature: 348 K
Tabular data in the source: 0
pressure (bar)	uptake (mmol/g)
0.00606095	0.0925926
0.0362818	0.138889
0.0634814	0.185185
0.0906811	0.231481
0.102766	0.231481
0.145071	0.277778
0.160177	0.277778
0.190388	0.277778
0.226651	0.324074
0.256863	0.324074
0.287084	0.37037
0.317295	0.37037
0.347516	0.416667
0.377727	0.416667
0.404927	0.462963
0.413981	0.416667
0.435139	0.462963
0.46535	0.462963
0.49255	0.509259
0.501613	0.509259
0.531825	0.509259
0.556003	0.555556
0.586215	0.555556
0.613405	0.555556
0.637574	0.555556
0.667795	0.601852
0.67988	0.601852
0.698006	0.601852
0.722176	0.601852
0.752396	0.648148
0.782608	0.648148
0.812829	0.694444
0.84304	0.694444
0.873261	0.740741
0.900451	0.740741
0.930663	0.740741
0.945769	0.740741
0.960884	0.787037
0.988074	0.787037
1.00621	0.833333
1.0334	0.833333
1.06361	0.833333
1.09081	0.87963
1.118	0.87963
1.1452	0.925926
1.17541	0.925926
1.2026	0.925926
1.21469	0.925926
1.2298	0.972222
