Adsorption isotherm of Ammonia on Graphite Oxide
DOI: 10.1021/La202924y
Adsorbate Ammonia: InChIKey QGZKDVFQNNGYKY-UHFFFAOYSA-N
Temperature: 338 K
Tabular data in the source: 0
pressure (bar)	uptake (mmol/g)
0.0771383	0.253809
0.0943083	0.272036
0.115297	0.296397
0.137462	0.326916
0.159822	0.345187
0.190546	0.369571
0.227177	0.400089
0.257578	0.424518
