Adsorption isotherm of Ammonia on Graphite Oxide
DOI: 10.1021/La202924y
Adsorbate Ammonia: InChIKey QGZKDVFQNNGYKY-UHFFFAOYSA-N
Temperature: 338 K
Tabular data in the source: 0
pressure (bar)	uptake (mmol/g)
0.0103407	0.135385
0.0143338	0.135385
0.0219695	0.153846
0.0289614	0.172308
0.0363078	0.184615
0.0422134	0.203077
0.0570637	0.227692
0.0733584	0.252308
0.104275	0.283077
0.148221	0.326154
0.210686	0.387692
0.284803	0.443077
0.348191	0.498462
0.425688	0.553846
0.494931	0.609231
0.561166	0.670769
0.620479	0.72
0.686063	0.769231
0.758578	0.824615
0.838757	0.88
0.904406	0.929231
0.951003	0.984615
1.02544	1.04615
1.1057	1.10154
1.16266	1.16923
1.25367	1.23077
