Adsorption isotherm of Ammonia on CuBTC/Graphite Oxide
DOI: 10.1021/La202924y
Adsorbate Ammonia: InChIKey QGZKDVFQNNGYKY-UHFFFAOYSA-N
Temperature: 318 K
Tabular data in the source: 0
pressure (bar)	uptake (mmol/g)
0.001	2.03077
0.00125265	2.26154
0.0015691	2.49231
0.00191695	2.67692
0.00240121	2.95385
0.00293353	3.18462
0.00367468	3.41538
0.00448921	3.64615
0.00562341	3.87692
0.00704417	4.10769
0.00860558	4.38462
0.01	4.56923
0.0125265	4.8
0.0191695	5.35385
0.021725	5.49231
0.0265406	5.81538
0.0483927	6.41538
0.0778574	7.2
0.113331	7.66154
0.153032	7.98462
0.177828	8.30769
0.217249	8.63077
0.300788	9.09231
