Adsorption isotherm of Ammonia on CuBTC/Graphite Oxide
DOI: 10.1021/La202924y
Adsorbate Ammonia: InChIKey QGZKDVFQNNGYKY-UHFFFAOYSA-N
Temperature: 348 K
Tabular data in the source: 0
pressure (bar)	uptake (mmol/g)
0.0144737	2.80675
0.0181602	2.9908
0.0222188	3.03681
0.0285891	3.40491
0.0438874	3.91104
0.0485434	4.18712
0.0726624	4.69325
0.0845298	4.92331
0.100844	5.19939
0.154804	5.52147
0.220326	5.93558
1.31959	7.22393
1.65569	7.40798
2.07739	7.59202
2.6065	7.82209
3.03216	7.96012
