Adsorption isotherm of Nitrogen on ZnO@C
DOI: 10.1016/j.jhazmat.2010.11.019
Adsorbate Nitrogen: InChIKey IJGRMHOSHXDMSA-UHFFFAOYSA-N
Temperature: 77 K
Tabular data in the source: 0
pressure (bar)	uptake (cm3(STP)/g)
0.00897478	2.81365
0.0336554	2.8047
0.0717982	3.14299
0.0964789	3.48616
0.116672	3.47884
0.134622	3.47234
0.154815	3.46502
0.172765	3.81062
0.186227	4.15786
0.242319	3.78541
0.29168	3.76752
0.338798	4.10256
0.388159	3.73256
0.486882	4.401
0.538487	4.73441
0.585604	4.36522
0.632722	5.05237
0.682083	5.03448
0.720226	5.37277
0.749394	5.71431
0.778562	6.05585
0.798755	6.75276
0.814461	7.45129
0.839142	7.44234
0.857092	8.14006
0.872797	8.48648
0.888503	9.53713
0.908697	10.234
0.931133	12.3386
0.95357	27.4713
0.958058	32.7514
0.960302	36.9759
0.962545	44.0173
