Adsorption isotherm of Nitrogen on ZnO@C
DOI: 10.1016/j.jhazmat.2010.11.019
Adsorbate Nitrogen: InChIKey IJGRMHOSHXDMSA-UHFFFAOYSA-N
Temperature: 77 K
Tabular data in the source: 0
pressure (bar)	uptake (cm3(STP)/g)
0.0132782	92.9032
0.0287694	108.871
0.0641779	123.387
0.0818821	127.742
0.0951603	132.097
0.115078	136.452
0.134995	139.355
0.161551	143.71
0.174829	146.613
0.192534	150.968
0.24122	155.323
0.29212	165.484
0.340807	172.742
0.389493	180
0.435967	187.258
0.486867	193.065
0.535553	200.323
0.582027	207.581
0.630713	214.839
0.681613	223.548
0.719235	230.806
0.745791	238.065
0.77456	242.419
0.794478	248.226
0.818821	251.129
0.834312	258.387
0.852016	261.29
0.869721	274.355
0.894064	280.161
0.909555	294.677
0.92062	304.839
0.929472	319.355
0.940538	332.419
0.947177	341.129
0.953816	354.194
0.967094	375.968
