Adsorption isotherm of Nitrogen on ZnO@C
DOI: 10.1016/j.jhazmat.2010.11.019
Adsorbate Nitrogen: InChIKey IJGRMHOSHXDMSA-UHFFFAOYSA-N
Temperature: 77 K
Tabular data in the source: 0
pressure (bar)	uptake (cm3(STP)/g)
0.0157059	1.41914
0.0493613	1.78474
0.0583361	2.14136
0.0897478	2.50614
0.118916	2.87011
0.141353	2.52491
0.172765	3.24305
0.195201	3.25121
0.242319	3.26835
0.293924	3.28712
0.338798	3.30344
0.388159	3.67475
0.435277	3.33853
0.507075	3.36464
0.536243	3.72861
0.583361	4.0991
0.632722	4.11706
0.677596	4.13338
0.717982	4.14807
0.749394	4.15949
0.774075	4.52183
0.798755	4.88416
0.827924	5.24813
0.857092	6.3188
0.890747	7.03776
0.919915	8.10844
0.942352	9.17667
0.955814	12.7151
0.964789	14.4852
