Adsorption isotherm of Nitrogen on TiO2
DOI: 10.1016/j.jhazmat.2010.11.019
Adsorbate Nitrogen: InChIKey IJGRMHOSHXDMSA-UHFFFAOYSA-N
Temperature: 77 K
Tabular data in the source: 0
pressure (bar)	uptake (cm3(STP)/g)
0.0112185	9.15086
0.0336554	10.5512
0.0673109	11.2432
0.0785293	12.2955
0.0964789	12.6411
0.116672	12.6338
0.134622	13.6836
0.157059	14.0276
0.175008	14.7253
0.195201	15.0701
0.242319	16.1094
0.29168	17.4999
0.341042	18.1863
0.390403	19.2247
0.439764	20.6153
0.486882	22.0066
0.536243	22.693
0.585604	24.0835
0.632722	25.1228
0.682083	27.2176
0.720226	28.9643
0.749394	30.3622
0.778562	31.7601
0.800999	33.8646
0.814461	35.2682
0.836898	36.6685
0.852604	38.4234
0.866066	40.1791
0.881772	42.286
0.892991	43.6904
0.901965	46.152
0.906453	48.263
0.913184	50.3733
0.922159	52.4827
0.926646	55.6501
0.933377	58.8166
0.937865	61.984
0.942352	65.1514
0.951327	74.3031
0.95357	79.584
0.955814	83.1043
0.960302	94.7224
0.962545	100.003
0.964789	110.566
