Adsorption isotherm of Nitrogen on ZnO@C
DOI: 10.1016/j.jhazmat.2010.11.019
Adsorbate Nitrogen: InChIKey IJGRMHOSHXDMSA-UHFFFAOYSA-N
Temperature: 77 K
Tabular data in the source: 0
pressure (bar)	uptake (cm3(STP)/g)
0.00442606	75.4839
0.00885212	91.4516
0.0154912	103.065
0.0265564	116.129
0.0442606	120.484
0.0597518	129.194
0.0840951	135
0.0951603	140.806
0.110651	143.71
0.126143	148.065
0.154912	152.419
0.177042	156.774
0.19696	161.129
0.245646	168.387
0.294333	177.097
0.340807	187.258
0.389493	195.968
0.43818	207.581
0.484653	217.742
0.535553	229.355
0.58424	236.613
0.630713	246.774
0.721448	268.548
0.748004	272.903
0.783412	285.968
0.814395	299.032
0.834312	306.29
0.84759	315
0.863082	325.161
0.911768	368.71
0.927259	387.581
0.936112	403.548
0.953816	431.129
0.958242	445.645
0.962668	455.806
