Adsorption isotherm of Nitrogen on TiO2
DOI: 10.1016/j.jhazmat.2010.11.019
Adsorbate Nitrogen: InChIKey IJGRMHOSHXDMSA-UHFFFAOYSA-N
Temperature: 77 K
Tabular data in the source: 0
pressure (bar)	uptake (cm3(STP)/g)
0.0110651	45
0.0331954	50.8065
0.0619648	56.6129
0.077456	59.5161
0.0973733	62.4194
0.115078	65.3226
0.139421	69.6774
0.157125	69.6774
0.177042	72.5806
0.19696	75.4839
0.243433	79.8387
0.294333	87.0968
0.338594	92.9032
0.389493	97.2581
0.43818	104.516
0.48908	111.774
0.535553	120.484
0.58424	126.29
0.632926	136.452
0.681613	145.161
0.721448	155.323
0.750217	165.484
0.778986	174.194
0.796691	185.806
0.816608	195.968
0.834312	209.032
0.849803	222.097
0.863082	233.71
0.878573	258.387
0.900703	290.323
0.907342	309.194
0.913981	322.258
0.92062	335.323
0.936112	348.387
0.942751	362.903
0.951603	373.065
0.962668	390.484
