Adsorption isotherm of Nitrogen on ZnO@C
DOI: 10.1016/j.jhazmat.2010.11.019
Adsorbate Nitrogen: InChIKey IJGRMHOSHXDMSA-UHFFFAOYSA-N
Temperature: 77 K
Tabular data in the source: 0
pressure (bar)	uptake (cm3(STP)/g)
0.00897478	1.41669
0.0358991	1.07313
0.0673109	1.43791
0.0852604	1.44444
0.10321	1.80432
0.136865	1.81656
0.157059	2.17727
0.172765	1.82962
0.195201	2.19114
0.242319	2.20828
0.29168	2.22623
0.341042	2.24418
0.390403	2.26214
0.457714	2.28662
0.504831	2.30376
0.533999	2.31437
0.583361	2.68568
0.634966	2.70445
0.682083	2.72158
0.72247	2.73627
0.778562	3.11003
0.789781	2.76075
0.836898	3.83796
0.866066	4.55528
0.917671	6.34084
0.942352	8.46996
0.955814	12.3618
0.962545	21.9049
0.964789	17.6654
