Adsorption isotherm of Nitrogen on IRMOF-1
DOI: 10.1016/j.jhazmat.2010.11.019
Adsorbate Nitrogen: InChIKey IJGRMHOSHXDMSA-UHFFFAOYSA-N
Temperature: 77 K
Tabular data in the source: 0
pressure (bar)	uptake (cm3(STP)/g)
0.00442606	204.677
0.00663909	214.839
0.0110651	227.903
0.0199173	233.71
0.0376215	238.065
0.0575388	240.968
0.077456	245.323
0.0951603	246.774
0.112865	249.677
0.139421	249.677
0.165977	252.581
0.185894	255.484
0.239007	254.032
0.265564	256.935
0.283268	256.935
0.298759	258.387
0.334167	259.839
0.374002	259.839
0.422689	261.29
0.475801	262.742
0.537766	264.194
0.597518	265.645
0.615222	267.097
0.6794	267.097
0.714809	270
0.761282	267.097
0.783412	270
0.838738	271.452
0.858655	270
0.871934	275.806
0.889638	277.258
0.922833	277.258
0.942751	277.258
0.958242	281.613
