Adsorption isotherm of Carbon Dioxide on [Cu(L)DMF]*2H2O
DOI: 10.1016/j.inoche.2013.10.022
Adsorbate Carbon Dioxide: InChIKey CURLTUGMZLYLDI-UHFFFAOYSA-N
Temperature: 195 K
Tabular data in the source: 0
pressure (bar)	uptake (cm3(STP)/g)
0.00515504	0.169013
0.00801532	3.96604
0.0108756	7.50565
0.0137359	13.2977
0.015166	21.6641
0.0165962	18.8967
0.0266072	23.9165
0.0437689	27.1344
0.0695115	30.2878
0.095254	32.6047
0.135298	33.9561
0.199654	34.8571
0.332658	36.4017
0.45851	37.8819
0.531448	38.3324
0.598664	39.0403
0.728807	40.3274
0.797454	41.0354
0.860381	41.872
0.929027	42.4512
