Adsorption isotherm of Carbon Dioxide on [Cu(L)DMF]*2H2O
DOI: 10.1016/j.inoche.2013.10.022
Adsorbate Carbon Dioxide: InChIKey CURLTUGMZLYLDI-UHFFFAOYSA-N
Temperature: 298 K
Tabular data in the source: 0
pressure (bar)	uptake (cm3(STP)/g)
0.0309707	0.380968
0.0774495	1.26829
0.105619	1.90209
0.153506	3.42322
0.256323	6.84576
0.353506	10.5218
0.45914	14.1345
0.50421	16.1627
0.556323	18.3176
0.608435	20.4091
0.705619	24.719
0.802802	29.0289
0.853506	31.5007
0.905619	33.7824
0.950689	36.1274
