Adsorption isotherm of Nitrogen on [Cu(L)DMF]*2H2O
DOI: 10.1016/j.inoche.2013.10.022
Adsorbate Nitrogen: InChIKey IJGRMHOSHXDMSA-UHFFFAOYSA-N
Temperature: 77 K
Tabular data in the source: 0
pressure (bar)	uptake (cm3(STP)/g)
0.00372489	0.23337
0.0995445	0.748221
0.122427	0.876934
0.202515	1.32743
0.254	1.5205
0.35125	1.90664
0.402735	2.22842
0.481393	2.48585
0.55576	2.74327
0.631558	3.0007
0.705925	3.25812
0.781723	3.64426
0.833208	3.90169
0.906145	4.35218
0.95477	4.99575
0.996244	6.08981
