Adsorption isotherm of Nitrogen on [Cu(L)DMF]*2H2O
DOI: 10.1016/j.inoche.2013.10.022
Adsorbate Nitrogen: InChIKey IJGRMHOSHXDMSA-UHFFFAOYSA-N
Temperature: 298 K
Tabular data in the source: 0
pressure (bar)	uptake (cm3(STP)/g)
0.00702701	0.190827
0.105619	0.380968
0.183083	0.571109
0.257731	0.697869
0.329562	0.82463
0.40421	1.01477
0.483083	1.20491
0.554914	1.39505
0.628154	1.64857
0.707027	1.90209
0.774633	2.02886
0.854914	2.47252
0.929562	2.59928
0.991534	2.78942
