Adsorption isotherm of Carbon Dioxide on [Cu(L)DMF]*2H2O
DOI: 10.1016/j.inoche.2013.10.022
Adsorbate Carbon Dioxide: InChIKey CURLTUGMZLYLDI-UHFFFAOYSA-N
Temperature: 273 K
Tabular data in the source: 0
pressure (bar)	uptake (cm3(STP)/g)
0.0197031	0.571109
0.0478721	1.39505
0.108435	3.99364
0.154914	5.89505
0.208435	8.17674
0.254914	10.3317
0.354914	14.9584
0.456323	18.9514
0.557731	23.0711
0.653506	27.0007
0.705619	29.1556
0.757731	31.5641
0.807027	33.5289
0.854914	35.8105
0.90421	38.0289
0.954914	40.5007
