Adsorption isotherm of Carbon Dioxide on CTF-DCN-400
DOI: 10.1021/acs.est.6b00425
Article source: Figure 2d
Adsorbate Carbon Dioxide: InChIKey CURLTUGMZLYLDI-UHFFFAOYSA-N
Kind: experiment
Temperature: 273 K
Tabular data in the source: 0
pressure (bar)	uptake (cm3(STP)/g)
0	1.25
0.007884	2.5
0.990802	47.1875
0.947438	46.25
0.894875	45.1562
0.855453	44.2188
0.695138	39.6875
0.649146	37.9688
0.603154	36.7188
0.542707	34.8438
0.495401	32.8125
0.445466	31.4062
0.395532	29.2188
0.346912	27.5
0.296978	25.1562
0.248357	22.5
0.201051	20.1562
0.147175	16.875
0.102497	13.4375
0.047306	8.75
0.024967	5.46875
0.749014	41.4062
0.801577	42.5
