Adsorption isotherm of Nitrogen on CTF-FUM-350
DOI: 10.1021/acs.est.6b00425
Article source: Figure 2a
Adsorbate Nitrogen: InChIKey IJGRMHOSHXDMSA-UHFFFAOYSA-N
Kind: experiment
Temperature: 298 K
Tabular data in the source: 0
pressure (bar)	uptake (cm3(STP)/g)
0.197724	0.997139
0.249027	0.840309
0.2977	1.15397
0.349003	1.46763
0.398991	1.78129
0.45161	1.93812
0.501598	2.09495
0.551586	2.72227
0.598943	2.72227
0.648932	3.19276
0.700235	3.50642
0.752854	3.50642
0.800211	3.50642
0.850199	3.97691
0.900187	3.97691
0.950175	4.13375
0.994901	4.29058
0.149051	0.212988
0.100379	0.056158
0.05039	0.056158
0.009611	0.727994
