Adsorption isotherm of Methane on CTF-FUM-500
DOI: 10.1021/acs.est.6b00425
Article source: Figure 2c
Adsorbate Methane: InChIKey VNWKTOKETHGBQD-UHFFFAOYSA-N
Kind: experiment
Temperature: 273 K
Tabular data in the source: 0
pressure (bar)	uptake (cm3(STP)/g)
0.990826	14.8438
0.944954	14.0625
0.892529	13.5938
0.840105	13.2812
0.693316	11.7188
0.59633	10.7812
0.500655	9.0625
0.547837	9.84375
0.44692	8.4375
0.397117	7.96875
0.346003	7.1875
0.29751	5.9375
0.249017	5.625
0.196592	4.6875
0.146789	3.4375
0.096986	2.5
0.044561	1.09375
0.026212	0.78125
0.005242	0.46875
0.646134	11.4062
0.747051	12.1875
0.796855	12.6562
