Adsorption isotherm of Methane on CTF-FUM-400
DOI: 10.1021/acs.est.6b00425
Article source: Figure 2b
Adsorbate Methane: InChIKey VNWKTOKETHGBQD-UHFFFAOYSA-N
Kind: experiment
Temperature: 298 K
Tabular data in the source: 0
pressure (bar)	uptake (cm3(STP)/g)
0.099081	2.19608
0.050525	0.941176
0.015092	0.470588
0.152887	3.13725
0.201444	4.39216
0.251312	5.17647
0.298556	5.96078
0.35105	6.58823
0.402231	7.37255
0.450787	8.15686
0.499344	8.94118
0.55315	9.41177
0.604331	9.72549
0.650262	10.1961
0.698819	10.6667
0.755249	11.451
0.795932	12.0784
0.844488	12.549
0.898294	13.0196
0.948163	13.4902
0.999344	13.8039
