Adsorption isotherm of Nitrogen on CTF-FUM-350
DOI: 10.1021/acs.est.6b00425
Article source: Figure 1
Adsorbate Nitrogen: InChIKey IJGRMHOSHXDMSA-UHFFFAOYSA-N
Kind: experiment
Temperature: 77 K
Tabular data in the source: 0
pressure (bar)	uptake (cm3(STP)/g)
0.004931	21.3836
0.007396	32.0755
0.012327	39.6226
0.012327	43.3962
0.012327	47.1698
0.019723	50.9434
0.03698	51.5723
0.049307	54.717
0.061633	55.3459
0.083821	56.2893
0.096148	57.2327
0.11094	59.1195
0.125732	59.7484
0.15285	61.0063
0.170108	61.0063
0.197226	62.2642
0.224345	62.8931
0.251464	63.522
0.273651	63.522
0.303235	64.7799
0.352542	65.4088
0.399383	66.6667
0.451155	67.2956
0.500462	68.5535
0.552234	68.5535
0.60154	69.8113
0.653312	71.0692
0.705084	71.6981
0.751925	72.956
0.806162	73.5849
0.853004	74.2138
0.907241	75.4717
0.961478	76.7296
1.00092	78.6163
0.091217	64.7799
0.135593	65.4088
0.187365	66.6667
0.236672	67.2956
0.290909	67.9245
0.340215	68.5535
0.391987	69.1824
0.438828	70.4403
0.493066	71.0692
0.542372	71.6981
0.591679	72.956
0.642058	73.4801
0.693419	74.208
0.743354	74.9359
0.793288	74.9359
0.840369	75.2999
0.918837	76.7558
0.948798	77.4837
