Adsorption isotherm of Nitrogen on CTF-FUM-400
DOI: 10.1021/acs.est.6b00425
Article source: Figure 1
Adsorbate Nitrogen: InChIKey IJGRMHOSHXDMSA-UHFFFAOYSA-N
Kind: experiment
Temperature: 77 K
Tabular data in the source: 0
pressure (bar)	uptake (cm3(STP)/g)
0.007431	86.1242
0.006111	77.323
0.006111	63.2719
0.006111	50.3987
0.006111	43.4432
0.006111	35.5342
0.006111	25.6058
0.006111	14.4995
0.012708	102.024
0.033816	111.504
0.052945	116.625
0.081803	119.595
0.109201	121.976
0.198557	127.174
0.226426	129.317
0.254625	129.538
0.285572	131.039
0.311235	131.405
0.343619	132.207
0.371544	133.541
0.400567	133.737
0.429591	135.093
0.458394	135.38
0.487638	136.398
0.516661	136.507
0.545685	137.281
0.574708	138.006
0.603732	138.472
0.632755	139.224
0.661779	139.303
0.690802	140.086
0.719826	140.132
0.748849	140.795
0.777873	141.671
0.806896	141.947
0.83592	142.65
0.981037	145.587
1.0061	147.018
0.88399	142.95
0.938068	144.032
0.910499	143.221
0.962456	144.573
0.006017	19.0577
0.126897	122.933
0.150225	124.285
0.177794	125.908
0.049492	119.686
0.099328	125.097
0.151286	128.343
0.201122	130.507
0.250959	132.671
0.301856	133.753
0.353813	135.376
0.40471	136.458
0.452426	137.269
0.506504	138.351
0.55528	139.163
0.611479	139.704
0.658135	140.786
0.710092	141.057
0.759929	142.409
0.810826	143.221
0.859602	143.762
0.911559	144.573
0.960336	145.655
