Adsorption isotherm of Methane on CTF-DCN-400
DOI: 10.1021/acs.est.6b00425
Article source: Figure 2d
Adsorbate Methane: InChIKey VNWKTOKETHGBQD-UHFFFAOYSA-N
Kind: experiment
Temperature: 273 K
Tabular data in the source: 0
pressure (bar)	uptake (cm3(STP)/g)
0.99343	14.375
0.947438	14.2188
0.894875	13.4375
0.850197	12.9688
0.797635	12.5
0.750329	11.5625
0.700394	11.25
0.647832	10.7812
0.590013	10.3125
0.541393	9.375
0.500657	8.75
0.450723	7.96875
0.395532	7.5
0.350854	6.5625
0.302234	5.9375
0.249671	5.3125
0.197109	4.21875
0.149803	3.28125
0.09724	2.1875
0.045992	1.40625
0.024967	0.78125
0.010512	0.625
0.002628	0.46875
