Adsorption isotherm of Carbon Dioxide on CTF-FUM-350
DOI: 10.1021/acs.est.6b00425
Article source: Figure 2a
Adsorbate Carbon Dioxide: InChIKey CURLTUGMZLYLDI-UHFFFAOYSA-N
Kind: experiment
Temperature: 298 K
Tabular data in the source: 0
pressure (bar)	uptake (cm3(STP)/g)
0.001718	0.997139
0.001718	2.56544
0.008295	5.54522
0.02145	9.15231
0.04776	13.8572
0.100379	20.4441
0.154313	25.3058
0.200355	28.7561
0.255605	32.3632
0.300331	34.5588
0.354265	37.5386
0.401622	39.5774
0.45161	41.6162
0.500283	43.4981
0.551586	45.3801
0.598943	46.9484
0.650247	48.3599
0.69892	50.085
0.750223	51.6533
0.800211	52.5943
0.851515	54.0058
0.900187	55.4172
0.950175	56.3582
0.997532	57.456
