Adsorption isotherm of Nitrogen on CTF-DCN-400
DOI: 10.1021/acs.est.6b00425
Article source: Figure 1
Adsorbate Nitrogen: InChIKey IJGRMHOSHXDMSA-UHFFFAOYSA-N
Kind: experiment
Temperature: 77 K
Tabular data in the source: 0
pressure (bar)	uptake (cm3(STP)/g)
0.021955	133.473
0.049459	153.352
0.078272	167.349
0.107085	173.317
0.193525	193.717
0.222338	200.01
0.251151	205.11
0.279964	211.512
0.395217	230.718
0.42403	235.817
0.452843	241.243
0.481656	245.475
0.510688	250.849
0.654536	280.414
0.683349	288.064
0.827415	334.317
0.856228	347.189
0.885041	361.74
0.910944	379.165
0.983704	492.434
1.00815	595.627
0.964261	434.022
0.963081	454.459
0.908787	396.374
0.943016	396.374
0.12507	180.167
0.153397	189.848
0.174642	191.999
0.300934	212.436
0.329261	222.117
0.356408	224.269
0.380014	229.647
0.533453	256.538
0.553518	260.841
0.585386	264.068
0.607811	271.597
0.633778	275.9
0.710497	292.035
0.731743	302.792
0.756529	311.397
0.784856	316.775
0.808462	327.532
