Adsorption isotherm of Methane on CTF-DCN-400
DOI: 10.1021/acs.est.6b00425
Article source: Figure 2d
Adsorbate Methane: InChIKey VNWKTOKETHGBQD-UHFFFAOYSA-N
Kind: experiment
Temperature: 298 K
Tabular data in the source: 0
pressure (bar)	uptake (cm3(STP)/g)
0.99343	9.0625
0.946124	8.75
0.896189	7.96875
0.848883	7.65625
0.654402	6.25
0.597898	5.9375
0.545335	5.46875
0.396846	4.375
0.348226	3.75
0.30092	3.125
0.249671	2.96875
0.202365	2.5
0.153745	2.1875
0.114323	1.71875
0.081472	1.5625
0.038108	1.25
0.797635	7.5
0.746386	7.1875
0.696452	6.71875
0.449409	4.6875
0.498029	5.15625
