Adsorption isotherm of Carbon Dioxide on CTF-FUM-350
DOI: 10.1021/acs.est.6b00425
Article source: Figure 2a
Adsorbate Carbon Dioxide: InChIKey CURLTUGMZLYLDI-UHFFFAOYSA-N
Kind: experiment
Temperature: 273 K
Tabular data in the source: 0
pressure (bar)	uptake (cm3(STP)/g)
0.003033	0.056158
0.003033	2.40861
0.004349	7.58401
0.008295	11.5048
0.024081	19.0326
0.05039	26.4036
0.100379	35.9703
0.150367	42.2435
0.199039	46.4779
0.250343	50.5555
0.300331	53.6921
0.350319	56.5151
0.398991	59.1812
0.45161	61.5336
0.502914	63.7292
0.551586	65.6112
0.600259	67.3363
0.650247	68.9046
0.69892	70.3161
0.750223	71.5708
0.798896	72.9822
0.847568	74.5505
0.901503	75.962
0.94886	77.0598
0.994901	78.1576
