Adsorption isotherm of Methane on CTF-DCN-500
DOI: 10.1021/acs.est.6b00425
Article source: Figure 2e
Adsorbate Methane: InChIKey VNWKTOKETHGBQD-UHFFFAOYSA-N
Kind: experiment
Temperature: 298 K
Tabular data in the source: 0
pressure (bar)	uptake (cm3(STP)/g)
0.991475	11.5851
0.946885	11.5851
0.893115	11.272
0.797377	10.0196
0.739672	9.39335
0.701639	8.92368
0.643934	8.45401
0.60459	7.82779
0.55082	7.51468
0.493115	6.88845
0.443279	6.26223
0.396066	5.3229
0.347541	4.69667
0.297705	4.38356
0.254426	4.22701
0.199344	2.97456
0.152131	2.50489
0.099672	2.03522
0.052459	0.939335
0.018361	0.313112
0.002623	0.156556
0.848525	10.4892
