Adsorption isotherm of Carbon Dioxide on CTF-DCN-500 (70% humidity treatment)
DOI: 10.1021/acs.est.6b00425
Article source: Figure S38
Adsorbate Carbon Dioxide: InChIKey CURLTUGMZLYLDI-UHFFFAOYSA-N
Kind: experiment
Temperature: 298 K
Tabular data in the source: 0
pressure (bar)	uptake (cm3(STP)/g)
0.006519	0.191305
0.024857	1.78219
0.048861	3.54109
0.097146	6.30507
0.14681	8.65026
0.196474	10.5917
0.246139	12.3356
0.295803	13.9334
0.345467	15.3594
0.395132	16.7081
0.444796	17.9623
0.49446	19.1564
0.544125	20.2817
0.593789	21.3556
0.643453	22.3864
0.693118	23.3657
0.742782	24.3021
0.792446	25.2642
0.842111	26.149
0.891775	27.0253
0.941439	27.9101
0.991104	28.9409
