Adsorption isotherm of Nitrogen on CTF-FUM-400
DOI: 10.1021/acs.est.6b00425
Article source: Figure 2b
Adsorbate Nitrogen: InChIKey IJGRMHOSHXDMSA-UHFFFAOYSA-N
Kind: experiment
Temperature: 298 K
Tabular data in the source: 0
pressure (bar)	uptake (cm3(STP)/g)
0.007218	0.627451
0.049213	0.470588
0.100394	0.627451
0.152887	0.784314
0.201444	0.784314
0.247375	1.09804
0.298556	1.56863
0.349738	1.56863
0.399606	1.72549
0.448163	1.88235
0.498031	2.35294
0.549213	2.66667
0.650262	3.13725
0.702756	3.45098
0.801181	3.76471
0.898294	4.39216
0.949475	4.23529
0.99147	4.86274
0.748688	3.60784
0.597769	2.82353
0.848425	3.92157
