Adsorption isotherm of Methane on CTF-FUM-350
DOI: 10.1021/acs.est.6b00425
Article source: Figure 2a
Adsorbate Methane: InChIKey VNWKTOKETHGBQD-UHFFFAOYSA-N
Kind: experiment
Temperature: 273 K
Tabular data in the source: 0
pressure (bar)	uptake (cm3(STP)/g)
0.993586	25.3058
0.951491	24.9922
0.904134	24.208
0.851515	23.4239
0.794949	22.7965
0.752854	22.0124
0.701551	20.9146
0.652878	20.1304
0.60289	19.1895
0.545009	18.4053
0.498967	17.6211
0.450295	16.0528
0.401622	15.1119
0.347688	13.5436
0.296384	11.9753
0.247712	11.0343
0.199039	9.15231
0.150367	7.27035
0.095117	5.07473
0.049075	2.72227
0.025396	1.62446
0.005664	0.369818
0.000913	0.257503
