Adsorption isotherm of Nitrogen on CTF-DCN-400
DOI: 10.1021/acs.est.6b00425
Article source: Figure 2d
Adsorbate Nitrogen: InChIKey IJGRMHOSHXDMSA-UHFFFAOYSA-N
Kind: experiment
Temperature: 298 K
Tabular data in the source: 0
pressure (bar)	uptake (cm3(STP)/g)
0.99343	2.5
0.801577	2.1875
0.750329	1.71875
0.60184	1.5625
0.541393	1.09375
0.492773	1.09375
0.452037	1.09375
0.400788	0.78125
0.34954	0.625
0.299606	0.625
0.249671	0.46875
0.199737	0.46875
0.145861	0.625
0.102497	0.46875
0.052562	0
0.003942	0.025
0.65046	1.5625
0.697766	1.875
0.848883	2.34375
0.896189	2.5
0.946124	2.65625
