Adsorption isotherm of Nitrogen on CTF-FUM-500
DOI: 10.1021/acs.est.6b00425
Article source: Figure 2c
Adsorbate Nitrogen: InChIKey IJGRMHOSHXDMSA-UHFFFAOYSA-N
Kind: experiment
Temperature: 298 K
Tabular data in the source: 0
pressure (bar)	uptake (cm3(STP)/g)
0.009174	0.225
0.047182	0.3125
0.096986	0.15625
0.1481	0.3125
0.197903	0.625
0.247706	0.78125
0.29751	0.78125
0.346003	0.9375
0.394495	1.25
0.444299	1.40625
0.496723	1.40625
0.546527	1.40625
0.597641	1.71875
0.647444	1.875
0.698558	2.03125
0.747051	2.03125
0.796855	2.1875
0.842726	2.65625
0.89384	2.65625
0.943644	2.96875
0.990826	2.96875
