Adsorption isotherm of Nitrogen on CTF-DCN-500
DOI: 10.1021/acs.est.6b00425
Article source: Figure 2e
Adsorbate Nitrogen: InChIKey IJGRMHOSHXDMSA-UHFFFAOYSA-N
Kind: experiment
Temperature: 273 K
Tabular data in the source: 0
pressure (bar)	uptake (cm3(STP)/g)
0.992787	7.04501
0.948197	6.88845
0.847213	6.26223
0.797377	5.63601
0.742295	5.63601
0.654426	5.16634
0.899672	6.7319
0.700328	5.16634
0.596721	4.38356
0.55082	4.22701
0.495738	3.91389
0.445902	3.28767
0.396066	3.13111
0.351475	2.818
0.301639	2.34834
0.24918	2.03522
0.199344	1.56556
0.146885	1.09589
0.097049	0.782779
0.049836	0.313112
0.027541	0.156556
0.006557	0.156556
