Adsorption isotherm of Nitrogen on CTF-FUM-350
DOI: 10.1021/acs.est.6b00425
Article source: Figure 2a
Adsorbate Nitrogen: InChIKey IJGRMHOSHXDMSA-UHFFFAOYSA-N
Kind: experiment
Temperature: 273 K
Tabular data in the source: 0
pressure (bar)	uptake (cm3(STP)/g)
0.005664	0.571163
0.025396	0.257503
0.05039	0.212988
0.101694	0.683479
0.150367	1.15397
0.200355	1.78129
0.247712	2.09495
0.300331	2.72227
0.349003	3.19276
0.397676	3.50642
0.448979	3.82008
0.497652	4.29058
0.550271	4.76107
0.598943	4.9179
0.647616	5.23156
0.700235	6.01571
0.748908	6.17254
0.79758	6.4862
0.850199	6.95669
0.897556	6.95669
0.950175	7.42718
0.997532	7.58401
