Adsorption isotherm of Carbon Dioxide on CTF-FUM-400
DOI: 10.1021/acs.est.6b00425
Article source: Figure 2b
Adsorbate Carbon Dioxide: InChIKey CURLTUGMZLYLDI-UHFFFAOYSA-N
Kind: experiment
Temperature: 273 K
Tabular data in the source: 0
pressure (bar)	uptake (cm3(STP)/g)
0.003281	0.313725
0.000656	2.03922
0.005906	7.21569
0.012467	10.1961
0.022966	16.9412
0.054462	22.2745
0.103018	30.2745
0.152887	34.8235
0.197507	38.1176
0.25	41.098
0.299869	43.9216
0.343176	46.2745
0.399606	48.6275
0.44685	50.6667
0.499344	52.2353
0.549213	53.8039
0.599081	55.3725
0.64895	56.3137
0.698819	57.5686
0.751312	58.9804
0.801181	60.0784
0.848425	61.1765
0.898294	62.7451
0.950787	63.3725
0.99147	64.4706
