Adsorption isotherm of Carbon Dioxide on CTF-DCN-500
DOI: 10.1021/acs.est.6b00425
Article source: Figure 2e
Adsorbate Carbon Dioxide: InChIKey CURLTUGMZLYLDI-UHFFFAOYSA-N
Kind: experiment
Temperature: 273 K
Tabular data in the source: 0
pressure (bar)	uptake (cm3(STP)/g)
0.992787	60.4305
0.95082	59.1781
0.899672	57.456
0.841967	55.8904
0.793443	54.4814
0.748852	52.7593
0.700328	51.5068
0.64918	49.3151
0.601967	47.7495
0.546885	46.0274
0.497049	43.8356
0.44459	41.4873
0.4	39.9217
0.34623	36.4775
0.299016	34.1292
0.246557	31.4677
0.20459	27.7104
0.146885	24.1096
0.099672	19.2564
0.047213	12.9941
0.024918	8.92368
0.013115	5.47945
0.002623	2.818
0.001311	1.09589
