Adsorption isotherm of Nitrogen on CTF-DCN-400
DOI: 10.1021/acs.est.6b00425
Article source: Figure 2d
Adsorbate Nitrogen: InChIKey IJGRMHOSHXDMSA-UHFFFAOYSA-N
Kind: experiment
Temperature: 273 K
Tabular data in the source: 0
pressure (bar)	uptake (cm3(STP)/g)
0.99343	4.375
0.942181	4.21875
0.890933	4.0625
0.844941	4.0625
0.792378	3.4375
0.750329	3.28125
0.695138	2.96875
0.649146	2.96875
0.599212	2.96875
0.542707	2.65625
0.501971	2.5
0.446781	2.03125
0.399474	1.875
0.34954	1.5625
0.299606	1.40625
0.250986	1.09375
0.201051	0.78125
0.13929	0.78125
0.09724	0.3125
0.051248	0.15625
0.024967	0.15625
