Adsorption isotherm of Methane on CTF-DCN-500
DOI: 10.1021/acs.est.6b00425
Article source: Figure 2e
Adsorbate Methane: InChIKey VNWKTOKETHGBQD-UHFFFAOYSA-N
Kind: experiment
Temperature: 273 K
Tabular data in the source: 0
pressure (bar)	uptake (cm3(STP)/g)
0.991475	20.6654
0.946885	19.5695
0.899672	18.6301
0.847213	17.6908
0.796066	16.908
0.740984	16.1252
0.69377	15.0294
0.653115	15.0294
0.603279	13.9335
0.546885	12.8376
0.504918	12.2114
0.449836	11.1155
0.4	9.86301
0.351475	9.39335
0.305574	8.61057
0.254426	7.35812
0.203279	5.94912
0.152131	4.69667
0.102295	3.28767
0.048525	1.87867
0.02623	1.09589
0.007869	0
