Adsorption isotherm of Nitrogen on CTF-FUM-400
DOI: 10.1021/acs.est.6b00425
Article source: Figure 2b
Adsorbate Nitrogen: InChIKey IJGRMHOSHXDMSA-UHFFFAOYSA-N
Kind: experiment
Temperature: 273 K
Tabular data in the source: 0
pressure (bar)	uptake (cm3(STP)/g)
0.005906	0.284314
0.022966	0.313725
0.0479	0.156863
0.101706	0.941176
0.150262	1.2549
0.200131	1.41176
0.248688	1.88235
0.302493	2.5098
0.354987	2.82353
0.396982	3.13725
0.450787	3.45098
0.499344	3.60784
0.55315	4.07843
0.597769	4.54902
0.651575	4.70588
0.700131	5.01961
0.747375	5.33333
0.797244	5.80392
0.847113	5.80392
0.899606	6.27451
0.950787	6.7451
0.995407	6.58823
