Adsorption isotherm of Nitrogen on CTF-FUM-500
DOI: 10.1021/acs.est.6b00425
Article source: Figure 2c
Adsorbate Nitrogen: InChIKey IJGRMHOSHXDMSA-UHFFFAOYSA-N
Kind: experiment
Temperature: 273 K
Tabular data in the source: 0
pressure (bar)	uptake (cm3(STP)/g)
0.003932	0.18125
0.028834	0.15625
0.048493	0.3125
0.096986	0.625
0.150721	0.78125
0.200524	1.09375
0.250328	1.40625
0.294889	1.5625
0.351245	1.71875
0.399738	2.03125
0.449541	2.34375
0.495413	2.5
0.545216	2.8125
0.59633	2.8125
0.648755	3.28125
0.694626	3.59375
0.747051	3.59375
0.795544	3.90625
0.849279	4.375
0.897772	4.53125
0.947575	4.6875
0.990826	4.53125
