Adsorption isotherm of Nitrogen on CTF-DCN-500
DOI: 10.1021/acs.est.6b00425
Article source: Figure 2e
Adsorbate Nitrogen: InChIKey IJGRMHOSHXDMSA-UHFFFAOYSA-N
Kind: experiment
Temperature: 298 K
Tabular data in the source: 0
pressure (bar)	uptake (cm3(STP)/g)
0.99541	3.28767
0.945574	3.44423
0.88918	3.13111
0.856393	2.66145
0.793443	2.66145
0.747541	2.66145
0.697705	2.50489
0.653115	2.34834
0.598033	2.34834
0.55082	2.34834
0.498361	1.87867
0.447213	1.56556
0.401311	1.409
0.348852	1.09589
0.301639	1.25245
0.246557	0.782779
0.201967	0.626223
0.148197	0.156556
0.097049	0
0.056393	0.156556
0.014426	0.169667
