Adsorption isotherm of Carbon Dioxide on CTF-FUM-400
DOI: 10.1021/acs.est.6b00425
Article source: Figure 2b
Adsorbate Carbon Dioxide: InChIKey CURLTUGMZLYLDI-UHFFFAOYSA-N
Kind: experiment
Temperature: 298 K
Tabular data in the source: 0
pressure (bar)	uptake (cm3(STP)/g)
0.026903	8.31373
0.050525	12.3922
0.095144	17.8824
0.154199	21.9608
0.202756	24.9412
0.252625	27.6078
0.298556	29.6471
0.347113	32.4706
0.396982	34.5098
0.44685	35.7647
0.543963	38.5882
0.600394	40.3137
0.499344	37.3333
0.647638	41.4118
0.701444	42.6667
0.748688	43.7647
0.798556	45.0196
0.847113	46.1176
0.898294	46.902
0.948163	48.1569
0.99147	48.9412
0.009843	5.64706
0.00853	4.07843
0.007218	2.66667
