Adsorption isotherm of Nitrogen on CTF-FUM-500
DOI: 10.1021/acs.est.6b00425
Article source: Figure 1
Adsorbate Nitrogen: InChIKey IJGRMHOSHXDMSA-UHFFFAOYSA-N
Kind: experiment
Temperature: 77 K
Tabular data in the source: 0
pressure (bar)	uptake (cm3(STP)/g)
0.00875	115.794
0.004792	105.982
0.002154	97.1236
0.005672	90.4187
0.005232	81.7263
0.000834	75.5842
0.004792	68.2857
0.004792	59.8603
0.000834	53.3716
0.004792	46.5732
0.000834	38.5632
0.000834	31.159
0.000834	23.7548
0.000834	16.3506
0.004792	7.38479
0.004792	2.28262
0.022382	128.384
0.037773	135.238
0.051043	142.177
0.080067	148.593
0.220395	166.825
0.249678	169.011
0.279196	171.41
0.306461	172.101
0.338342	173.934
0.36444	174.525
0.397753	175.282
0.424314	176.362
0.453337	176.655
0.482361	177.844
0.510329	177.524
0.541507	178.511
0.567604	179.168
0.599114	179.886
0.627478	180.551
0.656502	180.486
0.685525	181.323
0.714549	181.678
0.743572	181.882
0.830643	182.91
0.859666	183.245
0.88869	183.257
0.917713	183.481
1.00478	185.882
0.102509	152.147
0.126897	156.205
0.151286	159.451
0.178855	162.156
0.199001	164.591
0.787498	181.633
0.811886	182.985
0.76311	181.633
0.047371	145.655
0.099328	157.016
0.152346	164.05
0.201122	168.648
0.253079	172.435
0.301856	174.87
0.351692	177.034
0.40471	178.116
0.455607	178.928
0.508625	179.739
0.556341	180.551
0.607238	181.903
0.656014	182.174
0.709032	182.985
0.758868	183.526
0.808705	184.338
0.860662	184.608
0.909439	183.797
0.937008	184.067
0.962456	184.608
0.985784	184.067
