Adsorption isotherm of Carbon Dioxide on CTF-FUM-350 (70% humidity treatment)
DOI: 10.1021/acs.est.6b00425
Article source: Figure S37
Adsorbate Carbon Dioxide: InChIKey CURLTUGMZLYLDI-UHFFFAOYSA-N
Kind: experiment
Temperature: 298 K
Tabular data in the source: 0
pressure (bar)	uptake (cm3(STP)/g)
0.011025	0.985001
0.031076	2.92228
0.053202	5.30345
0.102985	9.29272
0.152768	12.354
0.202551	14.9693
0.252334	17.2592
0.302117	19.1393
0.3519	20.911
0.401683	22.5622
0.451466	24.1169
0.501249	25.4788
0.551032	26.7804
0.600815	28.0459
0.650598	29.1909
0.700381	30.3358
0.750164	31.4687
0.799947	32.4691
0.84973	33.4212
0.996313	36.7958
0.900889	34.5847
0.951715	35.3821
