Adsorption isotherm of Methane on CTF-FUM-400
DOI: 10.1021/acs.est.6b00425
Article source: Figure 2b
Adsorbate Methane: InChIKey VNWKTOKETHGBQD-UHFFFAOYSA-N
Kind: experiment
Temperature: 273 K
Tabular data in the source: 0
pressure (bar)	uptake (cm3(STP)/g)
0.001969	0.156863
0.007218	0.627451
0.025591	1.56863
0.050525	2.82353
0.099081	4.70588
0.151575	6.7451
0.206693	8
0.252625	9.2549
0.301181	10.5098
0.349738	11.7647
0.402231	12.8627
0.4521	13.9608
0.499344	15.2157
0.550525	16
0.599081	16.9412
0.650262	17.2549
0.701444	18.1961
0.755249	19.1373
0.794619	19.9216
0.85105	21.1765
0.900919	21.6471
0.948163	22.2745
0.998031	22.902
