Adsorption isotherm of Methane on CTF-FUM-350
DOI: 10.1021/acs.est.6b00425
Article source: Figure 2a
Adsorbate Methane: InChIKey VNWKTOKETHGBQD-UHFFFAOYSA-N
Kind: experiment
Temperature: 298 K
Tabular data in the source: 0
pressure (bar)	uptake (cm3(STP)/g)
0.000913	0.525805
0.04776	0.840309
0.099063	2.25178
0.14642	3.66325
0.197724	4.29058
0.249027	5.85888
0.296384	6.64303
0.35295	7.27035
0.398991	8.52499
0.452926	9.30914
0.498967	9.77964
0.551586	10.7206
0.598943	11.5048
0.651562	12.1321
0.702866	12.6026
0.750223	13.3867
0.798896	13.7004
0.848884	14.4845
0.898872	15.4255
0.951491	15.5824
0.996217	15.896
0.022766	0.571163
