Adsorption isotherm of Carbon Dioxide on CTF-DCN-400
DOI: 10.1021/acs.est.6b00425
Article source: Figure 2d
Adsorbate Carbon Dioxide: InChIKey CURLTUGMZLYLDI-UHFFFAOYSA-N
Kind: experiment
Temperature: 298 K
Tabular data in the source: 0
pressure (bar)	uptake (cm3(STP)/g)
0.994744	29.2188
0.955322	28.75
0.898817	27.3438
0.848883	26.5625
0.796321	25.7812
0.738502	24.375
0.700394	23.9062
0.647832	22.3438
0.595269	21.5625
0.547963	20.3125
0.501971	18.9062
0.446781	17.8125
0.399474	16.4062
0.350854	15.4688
0.299606	13.4375
0.241787	11.875
0.199737	10.4688
0.145861	8.90625
0.09724	6.875
0.055191	4.375
0.03548	3.125
0.018397	1.875
