Adsorption isotherm of Carbon Dioxide on CTF-FUM-500
DOI: 10.1021/acs.est.6b00425
Article source: Figure 2c
Adsorbate Carbon Dioxide: InChIKey CURLTUGMZLYLDI-UHFFFAOYSA-N
Kind: experiment
Temperature: 298 K
Tabular data in the source: 0
pressure (bar)	uptake (cm3(STP)/g)
0	0.3125
0.023591	3.59375
0.049803	6.09375
0.099607	9.53125
0.153342	12.9688
0.207077	15
0.252949	17.1875
0.304063	19.5312
0.357798	21.0938
0.406291	22.5
0.453473	24.5312
0.500655	25.7812
0.542595	27.5
0.601573	28.75
0.651376	30
0.692005	31.0938
0.740498	32.0312
0.849279	34.0625
0.896461	35.3125
0.947575	36.4062
0.984273	37.0312
0.796855	33.2812
