Adsorption isotherm of Carbon Dioxide on CTF-DCN-500
DOI: 10.1021/acs.est.6b00425
Article source: Figure 2e
Adsorbate Carbon Dioxide: InChIKey CURLTUGMZLYLDI-UHFFFAOYSA-N
Kind: experiment
Temperature: 298 K
Tabular data in the source: 0
pressure (bar)	uptake (cm3(STP)/g)
0.992787	38.5127
0.946885	37.5734
0.890492	36.4775
0.847213	35.6947
0.79082	34.4423
0.738361	32.8767
0.706885	32.407
0.646557	30.3718
0.598033	29.589
0.545574	28.3366
0.495738	26.9276
0.445902	25.0489
0.405246	23.953
0.34623	21.7613
0.296393	20.0391
0.243934	17.8474
0.203279	15.8121
0.153443	13.3072
0.091803	10.1761
0.047213	6.41879
0.030164	4.69667
0.019672	2.66145
0.002623	1.09589
