Adsorption isotherm of Nitrogen on CTF-DCN-500
DOI: 10.1021/acs.est.6b00425
Article source: Figure 1
Adsorbate Nitrogen: InChIKey IJGRMHOSHXDMSA-UHFFFAOYSA-N
Kind: experiment
Temperature: 77 K
Tabular data in the source: 0
pressure (bar)	uptake (cm3(STP)/g)
0.014184	141.749
0.007025	98.2868
0.006239	68.1317
0.006239	41.8066
0.005453	20.7996
0.073033	179.567
0.101846	185.904
0.13066	195.073
0.159473	200.48
0.188286	207.063
0.217099	211.114
0.245912	216.702
0.274725	223.448
0.303539	227.188
0.332352	233.756
0.361165	239.181
0.389978	243.319
0.418791	247.789
0.447605	253.891
0.478862	260.704
0.506155	270.144
0.534044	278.494
0.558928	275.151
0.583812	280.284
0.618238	290.185
0.649297	295.822
0.657155	349.551
0.67811	303.092
0.685968	357.02
0.706923	311.881
0.716237	364.471
0.735736	320.996
0.76455	331.195
0.793363	341.938
0.802967	377.998
0.824621	355.905
0.836463	367.474
0.859429	369.886
1.00422	396.029
0.025169	162.181
0.047907	173.233
0.507208	286.512
0.558746	304.471
0.610285	322.43
0.757322	370.781
0.858884	381.833
0.887685	379.07
0.911938	385.977
0.936192	390.122
0.966509	390.122
0.984699	392.885
0.458701	261.646
