Adsorption isotherm of Carbon Dioxide on CTF-FUM-500
DOI: 10.1021/acs.est.6b00425
Article source: Figure 2c
Adsorbate Carbon Dioxide: InChIKey CURLTUGMZLYLDI-UHFFFAOYSA-N
Kind: experiment
Temperature: 273 K
Tabular data in the source: 0
pressure (bar)	uptake (cm3(STP)/g)
0.005242	0
0.002621	1.40625
0.003932	2.5
0.007864	4.84375
0.027523	8.59375
0.053735	12.8125
0.102228	17.9688
0.152031	22.3438
0.197903	25.4688
0.250328	28.5938
0.29751	30.9375
0.347313	33.75
0.402359	35.7812
0.445609	37.8125
0.496723	39.375
0.754915	47.6562
0.792923	48.4375
0.838794	49.6875
0.895151	51.5625
0.948886	52.6562
0.992136	53.4375
0.549148	41.25
0.598952	42.9688
0.648755	44.5312
0.699869	45.9375
