Adsorption isotherm of Methane on CTF-FUM-500
DOI: 10.1021/acs.est.6b00425
Article source: Figure 2c
Adsorbate Methane: InChIKey VNWKTOKETHGBQD-UHFFFAOYSA-N
Kind: experiment
Temperature: 298 K
Tabular data in the source: 0
pressure (bar)	uptake (cm3(STP)/g)
0.989515	9.6875
0.944954	9.21875
0.795544	7.96875
0.737877	7.5
0.695937	7.34375
0.653997	6.71875
0.59502	6.5625
0.44692	5
0.40367	4.6875
0.344692	4.21875
0.296199	3.59375
0.246396	2.96875
0.200524	2.8125
0.152031	2.03125
0.100917	1.875
0.058978	1.09375
0.017038	0
0.895151	9.21875
0.545216	5.9375
0.496723	5.46875
0.844037	8.4375
