Adsorption isotherm of Nitrogen on COF-NN
DOI: 10.1021/acsami.0c12785
Article source: Figure S23
Adsorbate Nitrogen: InChIKey IJGRMHOSHXDMSA-UHFFFAOYSA-N
Kind: experiment
Temperature: 77 K
Tabular data in the source: 0
pressure (bar)	uptake ()
1.00391	186.406
0.958976	166.638
0.907022	156.631
0.856473	149.31
0.807328	141.988
0.755375	136.131
0.706229	132.226
0.652872	128.321
0.603727	122.464
0.555986	119.535
0.502628	116.606
0.452079	113.189
0.397317	108.796
0.352385	104.892
0.304644	101.963
0.251286	99.0342
0.204949	95.1294
0.151592	86.3434
0.098234	82.9266
1.00672	264.992
0.957572	259.134
0.905618	255.23
0.855771	248.64
0.80452	239.61
0.755375	233.753
0.706229	225.943
0.654276	219.109
0.602323	212.276
0.553178	204.466
0.504032	197.633
0.453483	192.751
0.40153	184.942
0.35098	180.061
0.300431	176.156
0.25269	169.81
0.203545	165.417
0.152996	159.56
0.101042	141.256
