Adsorption isotherm of Nitrogen on COF-N
DOI: 10.1021/acsami.0c12785
Article source: Figure S23
Adsorbate Nitrogen: InChIKey IJGRMHOSHXDMSA-UHFFFAOYSA-N
Kind: experiment
Temperature: 77 K
Tabular data in the source: 0
pressure (bar)	uptake (cm3(STP)/g)
0.002752	13.1268
0.00556	24.3534
0.006965	30.2107
0.008369	34.6037
0.011177	38.5086
0.015389	42.4134
0.016794	52.6638
0.030835	58.033
0.03926	59.9854
0.046281	63.8903
0.058918	67.3071
0.070151	68.7714
0.077172	70.7238
0.087001	72.1882
0.101042	75.6049
0.152996	78.5336
0.200737	83.4147
0.251286	86.8315
0.301835	89.7601
0.35098	93.1769
0.400126	97.0818
0.453483	99.0342
0.504032	104.892
0.554582	108.796
0.603727	112.701
0.652872	116.606
0.706229	123.44
0.756779	127.833
0.805924	133.202
0.857877	139.059
0.908427	145.893
0.958976	153.703
0.999696	165.905
1.00391	186.406
0.958976	166.638
0.907022	156.631
0.856473	149.31
0.807328	141.988
0.755375	136.131
0.706229	132.226
0.652872	128.321
0.603727	122.464
0.555986	119.535
0.502628	116.606
0.452079	113.189
0.397317	108.796
0.352385	104.892
0.304644	101.963
0.251286	99.0342
0.204949	95.1294
0.151592	86.3434
0.098234	82.9266
