Adsorption isotherm of Methane on MIL-53
DOI: 10.1021/Ja900555r
Adsorbate Methane: InChIKey VNWKTOKETHGBQD-UHFFFAOYSA-N
Temperature: 303 K
Tabular data in the source: 0
pressure (bar)	uptake (mmol/g)
4.23758	0.0155519
5.82898	0.207589
7.02289	0.323709
7.94142	0.401584
8.55253	0.552725
9.43902	0.742112
9.7729	1.00384
10.0446	1.33977
10.3171	1.60127
10.9255	1.97566
12.2057	2.53864
