Adsorption isotherm of Carbon Dioxide on MIL-53
DOI: 10.1021/Ja900555r
Adsorbate Carbon Dioxide: InChIKey CURLTUGMZLYLDI-UHFFFAOYSA-N
Temperature: 303 K
Tabular data in the source: 0
pressure (bar)	uptake (mmol/g)
0.00356252	0.380952
0.983969	1.21905
3.15746	1.6381
10.4955	2.32381
12.5942	2.74286
14.6256	3.9619
17.1076	5.37143
21.5287	6.13333
25.2732	6.55238
29.0901	6.70476
