Adsorption isotherm of Carbon Dioxide on MIL-53
DOI: 10.1021/Ja900555r
Adsorbate Carbon Dioxide: InChIKey CURLTUGMZLYLDI-UHFFFAOYSA-N
Temperature: 288 K
Tabular data in the source: 0
pressure (bar)	uptake (mmol/g)
0.225151	0.0761905
0.230495	0.647619
0.835768	1.37143
4.20734	1.90476
8.10118	2.28571
10.8867	4.15238
12.5411	5.06667
15.4656	5.79048
21.228	5.98095
28.2647	6.4381
