Adsorption isotherm of Carbon Dioxide on MIL-53
DOI: 10.1021/Ja900555r
Adsorbate Carbon Dioxide: InChIKey CURLTUGMZLYLDI-UHFFFAOYSA-N
Temperature: 303 K
Tabular data in the source: 0
pressure (bar)	uptake (mmol/g)
1.01574	0.30113
2.60436	0.716423
4.10289	0.982533
5.23364	1.24726
6.06022	1.32479
7.77283	1.62891
8.59709	1.89249
9.69672	2.19431
10.1541	2.38209
10.7782	3.9473
11.0364	5.36229
11.4274	5.95913
11.94	6.63086
12.0919	6.74306
