Adsorption isotherm of Formaldehyde on Zeolite KY
DOI: 10.1016/j.jhazmat.2015.07.078
Article source: Figure 2
Adsorbate Formaldehyde: InChIKey WSFSSNUMVMOOMR-UHFFFAOYSA-N
Kind: experiment
Temperature: 298 K
Tabular data in the source: 0
pressure (bar)	uptake (wt%)
6e-06	0.580046
1.2e-05	3.29268
2.3e-05	4.7561
2.9e-05	6.34146
3.5e-05	7.56098
4.1e-05	8.41463
4.6e-05	9.26829
5.8e-05	10.2439
7e-05	11.7073
8.7e-05	12.6829
0.000133	15.3659
0.000191	16.9512
0.000336	19.5122
0.000609	20.9756
0.001085	22.0732
0.001531	22.8049
0.002135	23.7805
