Adsorption isotherm of Formaldehyde on MIL-53(Ga)
DOI: 10.1016/j.jhazmat.2015.07.078
Article source: Figure 6
Adsorbate Formaldehyde: InChIKey WSFSSNUMVMOOMR-UHFFFAOYSA-N
Kind: experiment
Temperature: 298 K
Tabular data in the source: 0
pressure (bar)	uptake (wt%)
7.8e-05	0.379061
0.000132	0.32852
0.000191	0.404332
0.000239	0.404332
0.000275	0.555957
0.000323	0.581227
0.000353	0.65704
0.000377	1.23827
0.000437	1.213
0.000472	1.49097
0.000472	1.81949
0.000574	2.14801
0.000592	2.29964
0.000663	2.57762
0.000675	2.98195
0.00068	3.81588
0.000691	4.64982
0.000705	3.15884
0.000751	5.3574
0.00084	5.66065
0.000966	5.73646
0.00099	5.98917
0.00105	6.01444
0.001272	6.29242
0.001308	6.14079
0.001745	6.44404
0.001835	6.69675
