Adsorption isotherm of Formaldehyde on Zeolite Na-Y
DOI: 10.1016/j.jhazmat.2015.07.078
Article source: Figure 2
Adsorbate Formaldehyde: InChIKey WSFSSNUMVMOOMR-UHFFFAOYSA-N
Kind: experiment
Temperature: 298 K
Tabular data in the source: 0
pressure (bar)	uptake (wt%)
0	0
6e-06	7.19512
1.2e-05	10.4878
2.3e-05	14.6341
2.9e-05	15.9756
4.1e-05	17.561
4.6e-05	18.7805
5.8e-05	19.7561
7e-05	20.4878
9.3e-05	21.3415
0.00011	22.1951
0.000139	23.5366
0.00022	25.6098
0.000325	27.8049
0.000435	29.0244
0.000679	30.3659
0.000969	31.4634
0.001218	31.8293
0.001444	32.1951
0.001729	32.561
0.001961	32.8049
