Adsorption isotherm of Formaldehyde on SBA-15
DOI: 10.1016/j.jhazmat.2015.07.078
Article source: Figure 6
Adsorbate Formaldehyde: InChIKey WSFSSNUMVMOOMR-UHFFFAOYSA-N
Kind: experiment
Temperature: 298 K
Tabular data in the source: 0
pressure (bar)	uptake (wt%)
1.2e-05	0.202166
1.8e-05	0.429603
3.5e-05	0.555957
5.9e-05	0.758123
0.000101	0.98556
0.000137	1.28881
0.000232	1.89531
0.000364	2.19856
0.000471	2.77978
0.000734	3.48736
0.000955	4.39711
0.001195	5.05415
0.001446	5.58484
0.001703	6.14079
0.001859	6.74729
