Adsorption isotherm of Formaldehyde on Zeolite 13X
DOI: 10.1016/j.jhazmat.2015.07.078
Article source: Figure 3
Adsorbate Formaldehyde: InChIKey WSFSSNUMVMOOMR-UHFFFAOYSA-N
Kind: experiment
Temperature: 298 K
Tabular data in the source: 0
pressure (bar)	uptake (wt%)
6e-06	0.584112
1.2e-05	13.4141
1.8e-05	16.8284
2.3e-05	18.6574
3.5e-05	25.73
4.1e-05	22.437
4.7e-05	22.9245
5.8e-05	26.2167
6.4e-05	24.1432
8.8e-05	26.9469
0.000134	25.7252
0.000152	27.4316
0.000304	28.3998
0.000496	27.5368
0.000602	29.117
0.000666	27.8943
0.000847	28.4953
0.001279	29.3278
0.001437	29.9299
0.001665	30.0407
0.001998	30.2684
