Adsorption isotherm of Formaldehyde on Zeolite 13X
DOI: 10.1016/j.jhazmat.2015.07.078
Article source: Figure 9
Adsorbate Formaldehyde: InChIKey WSFSSNUMVMOOMR-UHFFFAOYSA-N
Kind: experiment
Temperature: 298 K
Tabular data in the source: 0
pressure (bar)	uptake (wt%)
1e-06	1.28676
1e-06	2.1875
2e-06	3.21691
4e-06	6.94853
6e-06	8.49265
9e-06	11.0662
1e-05	11.9669
1.2e-05	13.3824
1.4e-05	15.0551
1.4e-05	15.9559
1.7e-05	17.114
2e-05	18.4007
2.1e-05	18.7868
2.2e-05	19.5588
3.8e-05	22.5184
4.5e-05	23.2904
7.3e-05	24.4485
0.000139	25.864
0.000542	27.6654
0.000661	28.0515
0.000877	28.5662
0.001304	29.4669
0.00173	30.1103
0.001993	30.4963
