Adsorption isotherm of Formaldehyde on Activated Carbon
DOI: 10.1016/j.jhazmat.2015.07.078
Article source: Figure 6
Adsorbate Formaldehyde: InChIKey WSFSSNUMVMOOMR-UHFFFAOYSA-N
Kind: experiment
Temperature: 298 K
Tabular data in the source: 0
pressure (bar)	uptake (wt%)
1.8e-05	0.101083
1.8e-05	0.202166
4.8e-05	0.277978
0.00012	0.353791
0.000287	0.555957
0.000527	0.833935
0.000743	1.0361
0.000976	1.31408
0.00133	1.61733
0.001731	1.89531
0.001989	2.17329
