Adsorption isotherm of Formaldehyde on Zeolite DAY
DOI: 10.1016/j.jhazmat.2015.07.078
Article source: Figure 2
Adsorbate Formaldehyde: InChIKey WSFSSNUMVMOOMR-UHFFFAOYSA-N
Kind: experiment
Temperature: 298 K
Tabular data in the source: 0
pressure (bar)	uptake (wt%)
6e-06	0
1.7e-05	0.487805
4.1e-05	0.609756
8.7e-05	0.853659
0.000133	0.853659
0.000186	0.97561
0.00029	1.09756
0.000394	1.21951
0.000487	1.21951
0.000534	1.46341
0.000684	1.34146
0.00076	1.34146
0.000945	1.58537
0.001323	2.43902
0.00156	3.29268
0.001752	5.36585
0.00185	7.19512
