Adsorption isotherm of Formaldehyde on Zeolite CuX
DOI: 10.1016/j.jhazmat.2015.07.078
Article source: Figure 3
Adsorbate Formaldehyde: InChIKey WSFSSNUMVMOOMR-UHFFFAOYSA-N
Kind: experiment
Temperature: 298 K
Tabular data in the source: 0
pressure (bar)	uptake (wt%)
0	1.58565
0	3.78049
6e-06	7.31679
1.2e-05	10.6092
1.8e-05	8.04793
2.9e-05	17.9254
3.5e-05	13.9007
5.3e-05	16.2169
8.2e-05	18.0448
9.3e-05	21.093
0.000158	22.4313
0.000164	20.7237
0.000275	22.9134
0.000485	25.4642
0.000695	25.4539
0.001057	26.7777
0.001279	26.8888
0.001822	27.594
0.002079	27.8254
