Adsorption isotherm of Formaldehyde on Zeolite 3A
DOI: 10.1016/j.jhazmat.2015.07.078
Article source: Figure 3
Adsorbate Formaldehyde: InChIKey WSFSSNUMVMOOMR-UHFFFAOYSA-N
Kind: experiment
Temperature: 298 K
Tabular data in the source: 0
pressure (bar)	uptake (wt%)
1.2e-05	0.609186
2.3e-05	1.58423
2.9e-05	11.462
5.8e-05	2.68008
8.2e-05	3.65455
0.000175	15.4793
0.00021	4.62389
0.000368	5.46985
0.000602	7.28773
0.000619	15.7015
0.000765	8.49926
0.001063	10.4359
0.001314	15.9115
0.001443	12.8565
0.001817	15.2772
0.001951	16.1243
