Adsorption isotherm of Nitrogen on CeO2/NiO
DOI: 10.1166/sam.2017.3123
Article source: Figure 6
Adsorbate Nitrogen: InChIKey IJGRMHOSHXDMSA-UHFFFAOYSA-N
Kind: experiment
Temperature: 77 K
Tabular data in the source: 0
pressure (bar)	uptake (cm3(STP)/g)
0.003921	0.765
0.009312	36.846
0.029829	42.043
0.033751	42.554
0.048848	45.105
0.070014	46.237
0.099337	47.477
0.112337	47.791
0.124435	47.697
0.138934	49.028
0.163728	49.452
0.17612	50.68
0.202717	51.816
0.25502	53.173
0.301872	55.847
0.306715	55.546
0.353871	57.712
0.406771	59.984
0.456359	61.441
0.50775	63.306
0.557317	65.779
0.611738	67.95
0.659805	69.203
0.660393	71.642
0.707842	74.724
0.713314	71.882
0.758899	80.246
0.760753	75.776
0.809348	85.769
0.810898	81.4
0.830524	84.361
0.833493	90.562
0.86005	95.966
0.865562	89.06
0.885492	92.427
0.888704	104.319
0.904885	109.378
0.911958	97.768
0.929253	120.929
0.937562	106.738
0.964554	120.066
0.967584	153.058
0.9826	139.518
0.989419	178.562
0.994465	154.045
0.995529	191.472
1.0019	178.006
1.00862	203.338
