Adsorption isotherm of Nitrogen on NiO
DOI: 10.1166/sam.2017.3123
Article source: Figure 6
Adsorbate Nitrogen: InChIKey IJGRMHOSHXDMSA-UHFFFAOYSA-N
Kind: experiment
Temperature: 77 K
Tabular data in the source: 0
pressure (bar)	uptake (cm3(STP)/g)
0.002837	1.263
0.004347	28.219
0.008227	31.087
0.027337	37.172
0.049132	39.587
0.078394	40.513
0.109733	42.701
0.141386	44.202
0.158104	45.812
0.183476	46.622
0.201694	46.398
0.253034	49.968
0.30021	52.62
0.35305	54.585
0.405292	57.467
0.455153	60.234
0.488894	61.735
0.503818	60.707
0.54143	65.879
0.553973	62.901
0.603237	70.714
0.606519	66.127
0.657566	69.583
0.658468	76.924
0.709828	95.062
0.71071	73.383
0.759973	78.559
0.763276	115.495
0.81102	85.226
0.811952	132.944
0.831619	87.87
0.840312	141.096
0.860617	147.181
0.861479	95.334
0.885067	102.223
0.890771	153.154
0.901825	157.401
0.912241	111.981
0.926305	165.208
0.938525	124.606
0.95348	176.113
0.964504	141.475
0.979459	194.932
0.991091	167.98
0.9941	209.962
0.99946	181.173
1.01022	203.658
1.01083	224.535
