Adsorption isotherm of P-Xylene on UiO-66
DOI: 10.1016/j.micromeso.2014.02.014
Adsorbate P-Xylene: InChIKey URLKBWYHVLBVBO-UHFFFAOYSA-N
Temperature: 423 K
Tabular data in the source: 0
pressure (bar)	uptake (mmol/g)
-0.00272727	0.401512
0.0681818	1.59416
0.136364	1.6939
0.27	1.77072
0.411818	1.80286
0.542727	1.82395
0.681818	1.83381
0.818182	1.85485
0.954545	1.86473
1.08818	1.8858
