Adsorption isotherm of Ethylbenzene on UiO-66
DOI: 10.1016/j.micromeso.2014.02.014
Adsorbate Ethylbenzene: InChIKey YNQLUTRBYVCPMQ-UHFFFAOYSA-N
Temperature: 423 K
Tabular data in the source: 0
pressure (bar)	uptake (mmol/g)
0.0020987	0.69143
0.0720351	1.76141
0.145662	1.77188
0.287471	1.78171
0.432018	1.78037
0.576554	1.79018
0.721101	1.78884
0.865648	1.78749
1.01019	1.78615
1.15474	1.78481
