Adsorption isotherm of O-Xylene on UiO-66
DOI: 10.1016/j.micromeso.2014.02.014
Adsorbate O-Xylene: InChIKey CTQNGGLPUBDAKN-UHFFFAOYSA-N
Temperature: 423 K
Tabular data in the source: 0
pressure (bar)	uptake (mmol/g)
-0.00145312	1.4052
0.0591205	1.88476
0.116666	2.04089
0.234297	2.14126
0.349104	2.14126
0.469438	2.20818
0.584265	2.23048
0.701815	2.24164
0.819375	2.26394
0.934202	2.28625
1.05175	2.2974
