Adsorption isotherm of O-Xylene on UiO-66
DOI: 10.1016/j.micromeso.2014.02.014
Adsorbate O-Xylene: InChIKey CTQNGGLPUBDAKN-UHFFFAOYSA-N
Temperature: 423 K
Tabular data in the source: 0
pressure (bar)	uptake (mmol/g)
0.00139913	1.46095
0.058358	1.80615
0.118338	1.8279
0.232895	1.81568
0.350138	1.84805
0.467402	1.85811
0.581948	1.85705
0.699191	1.88941
0.816435	1.92178
0.931012	1.88726
1.04825	1.91963
