Adsorption isotherm of Ethylbenzene on UiO-66
DOI: 10.1016/j.micromeso.2014.02.014
Adsorbate Ethylbenzene: InChIKey YNQLUTRBYVCPMQ-UHFFFAOYSA-N
Temperature: 423 K
Tabular data in the source: 0
pressure (bar)	uptake (mmol/g)
0.00272727	0.089194
0.0709091	1.50492
0.147273	1.63804
0.289091	1.69248
0.433636	1.73575
0.578182	1.75671
0.72	1.76654
0.867273	1.76517
1.00909	1.77501
1.15364	1.78482
