Adsorption isotherm of O-Xylene on UiO-66
DOI: 10.1016/j.micromeso.2014.02.014
Adsorbate O-Xylene: InChIKey CTQNGGLPUBDAKN-UHFFFAOYSA-N
Temperature: 423 K
Tabular data in the source: 0
pressure (bar)	uptake (mmol/g)
3.55271e-17	1.16929
0.0578313	1.77165
0.118554	1.79528
0.237108	1.79528
0.34988	1.79528
0.465542	1.80709
0.586988	1.8189
0.699759	1.8189
0.818313	1.8189
0.933976	1.83071
1.05253	1.83071
