Adsorption isotherm of P-Xylene on UiO-66
DOI: 10.1016/j.micromeso.2014.02.014
Adsorbate P-Xylene: InChIKey URLKBWYHVLBVBO-UHFFFAOYSA-N
Temperature: 423 K
Tabular data in the source: 0
pressure (bar)	uptake (mmol/g)
-0.00187991	0.936803
0.067514	2.09665
0.135861	2.10781
0.269812	2.11896
0.40922	2.11896
0.543201	2.16357
0.679906	2.19703
0.819324	2.20818
0.953275	2.21933
1.0927	2.24164
