Adsorption isotherm of Ethylbenzene on UiO-66
DOI: 10.1016/j.micromeso.2014.02.014
Adsorbate Ethylbenzene: InChIKey YNQLUTRBYVCPMQ-UHFFFAOYSA-N
Temperature: 423 K
Tabular data in the source: 0
pressure (bar)	uptake (mmol/g)
0.000609699	0.669145
0.0699223	1.73978
0.143747	1.76208
0.285898	1.77323
0.430773	1.77323
0.578401	1.79554
0.723286	1.80669
0.865448	1.829
1.01306	1.829
1.15795	1.8513
