Adsorption isotherm of Ethylbenzene on UiO-66
DOI: 10.1016/j.micromeso.2014.02.014
Adsorbate Ethylbenzene: InChIKey YNQLUTRBYVCPMQ-UHFFFAOYSA-N
Temperature: 423 K
Tabular data in the source: 0
pressure (bar)	uptake (mmol/g)
3.55271e-17	0.413386
0.0693976	1.65354
0.14747	1.72441
0.286265	1.75984
0.430843	1.75984
0.578313	1.75984
0.722892	1.77165
0.86747	1.77165
1.01205	1.78346
1.15373	1.78346
