Adsorption isotherm of P-Xylene on UiO-66
DOI: 10.1016/j.micromeso.2014.02.014
Adsorbate P-Xylene: InChIKey URLKBWYHVLBVBO-UHFFFAOYSA-N
Temperature: 423 K
Tabular data in the source: 0
pressure (bar)	uptake (mmol/g)
3.55271e-17	0.486166
0.066506	1.63702
0.138795	1.68517
0.271807	1.76948
0.407711	1.77083
0.546506	1.78406
0.679518	1.79723
0.815422	1.81043
0.954217	1.82366
1.08723	1.83683
