Adsorption isotherm of M-Xylene on UiO-66
DOI: 10.1016/j.micromeso.2014.02.014
Adsorbate M-Xylene: InChIKey IVSZLXZYQVIEFR-UHFFFAOYSA-N
Temperature: 423 K
Tabular data in the source: 0
pressure (bar)	uptake (mmol/g)
3.55271e-17	0.413386
0.066506	1.70079
0.135904	1.75984
0.268916	1.78346
0.404819	1.78346
0.53494	1.79528
0.670843	1.78346
0.806747	1.79528
0.939759	1.78346
1.07277	1.78346
