Adsorption isotherm of P-Xylene on UiO-66
DOI: 10.1016/j.micromeso.2014.02.014
Adsorbate P-Xylene: InChIKey URLKBWYHVLBVBO-UHFFFAOYSA-N
Temperature: 423 K
Tabular data in the source: 0
pressure (bar)	uptake (mmol/g)
0.00188579	0.925633
0.0665399	1.80607
0.134682	1.85005
0.270925	1.98261
0.40731	1.95904
0.546372	1.9912
0.682716	2.01224
0.816354	2.011
0.952647	2.0878
1.08901	2.08653
