Adsorption isotherm of Carbon Dioxide on UiO-66
DOI: 10.1016/j.micromeso.2014.02.014
Adsorbate Carbon Dioxide: InChIKey CURLTUGMZLYLDI-UHFFFAOYSA-N
Temperature: 303 K
Tabular data in the source: 0
pressure (bar)	uptake (mmol/g)
0.0451467	-0.0309858
0.180587	0.248728
0.316027	0.870056
0.496614	1.21195
0.677201	1.5849
0.902935	1.86476
1.17381	2.20679
1.3544	2.42446
1.67043	2.76657
1.89616	3.01537
2.07675	3.10881
3.386	3.88725
4.74041	4.51047
6.99774	5.50776
8.35214	5.85148
10.0677	6.35104
13.1377	6.97692
14.9887	7.16613
16.7494	7.3552
18.2393	7.51279
