Adsorption isotherm of Methane on UiO-66
DOI: 10.1016/j.micromeso.2014.02.014
Adsorbate Methane: InChIKey VNWKTOKETHGBQD-UHFFFAOYSA-N
Temperature: 273 K
Tabular data in the source: 0
pressure (bar)	uptake (mmol/g)
0.0225225	-0.0309249
0.315315	0.464884
0.630631	0.72853
0.878378	0.899193
1.21622	1.10095
1.50901	1.24073
1.77928	1.48882
2.09459	1.62863
2.34234	1.76833
2.68018	1.86173
2.95045	1.95503
3.1982	2.12569
3.51351	2.21906
3.80631	2.26595
4.0991	2.39025
4.39189	2.49906
4.68468	2.60787
5	2.6548
5.27027	2.65522
5.56306	2.79499
5.83333	2.88829
6.14865	2.88877
6.44144	3.02855
6.73423	3.12188
7.02703	3.12233
7.34234	3.1383
7.63514	3.24711
7.92793	3.34045
8.22072	3.35638
8.49099	3.3568
8.76126	3.54297
9.07658	3.48154
9.32432	3.55933
9.70721	3.71472
