Adsorption isotherm of M-Xylene on UiO-66
DOI: 10.1016/j.micromeso.2014.02.014
Adsorbate M-Xylene: InChIKey IVSZLXZYQVIEFR-UHFFFAOYSA-N
Temperature: 423 K
Tabular data in the source: 0
pressure (bar)	uptake (mmol/g)
0.00272727	0.211871
0.0709091	1.66105
0.133636	1.72738
0.272727	1.75955
0.400909	1.76951
0.534545	1.79057
0.670909	1.7893
0.801818	1.79924
0.938182	1.79797
1.07182	1.79673
