Adsorption isotherm of M-Xylene on UiO-66
DOI: 10.1016/j.micromeso.2014.02.014
Adsorbate M-Xylene: InChIKey IVSZLXZYQVIEFR-UHFFFAOYSA-N
Temperature: 423 K
Tabular data in the source: 0
pressure (bar)	uptake (mmol/g)
-0.000871924	0.959116
0.0692774	1.7949
0.13746	1.79426
0.26836	1.8042
0.401987	1.81411
0.535625	1.81287
0.669272	1.80047
0.805627	1.81036
0.936537	1.80914
1.07288	1.83018
