Adsorption isotherm of M-Xylene on UiO-66
DOI: 10.1016/j.micromeso.2014.02.014
Adsorbate M-Xylene: InChIKey IVSZLXZYQVIEFR-UHFFFAOYSA-N
Temperature: 423 K
Tabular data in the source: 0
pressure (bar)	uptake (mmol/g)
-0.00200185	0.802974
0.0672193	1.77323
0.132853	1.80669
0.266815	1.829
0.403469	1.80669
0.53743	1.829
0.668667	1.86245
0.805331	1.8513
0.939303	1.88476
1.0733	1.95167
