Adsorption isotherm of O-Xylene on UiO-66
DOI: 10.1016/j.micromeso.2014.02.014
Adsorbate O-Xylene: InChIKey CTQNGGLPUBDAKN-UHFFFAOYSA-N
Temperature: 423 K
Tabular data in the source: 0
pressure (bar)	uptake (mmol/g)
0	0.981413
0.06	1.75037
0.114545	1.77217
0.234545	1.82682
0.349091	1.8146
0.466364	1.83581
0.586364	1.84585
0.698182	1.85596
0.815455	1.85487
0.932727	1.85379
1.05	1.8527
