Adsorption isotherm of Carbon Dioxide on {Ce(tci)}n
DOI: 10.1002/anie.200703086
Adsorbate Carbon Dioxide: InChIKey CURLTUGMZLYLDI-UHFFFAOYSA-N
Temperature: 195 K
Tabular data in the source: 0
pressure (bar)	uptake (molecules/formula unit)
0.160885	0.0128009
0.208824	0.0128009
0.308933	0.00504598
0.359692	0.0283106
0.661427	0.0283106
0.710777	0.0438204
0.760126	0.0593301
0.860234	0.0593301
0.912403	0.0825948
0.961753	0.067085
