Adsorption isotherm of Methanol on {Ce(tci)}n
DOI: 10.1002/anie.200703086
Adsorbate Methanol: InChIKey OKKJLVBELUTLKV-UHFFFAOYSA-N
Temperature: 195 K
Tabular data in the source: 0
pressure (bar)	uptake (molecules/formula unit)
0.332902	0.067085
0.444291	0.0903497
0.550039	0.0981045
0.658607	0.121369
0.762946	0.160144
0.867284	0.206673
0.944833	0.39279
0.980082	0.904612
