Adsorption isotherm of Nitrogen on {Ce(tci)}n
DOI: 10.1002/anie.200703086
Adsorbate Nitrogen: InChIKey IJGRMHOSHXDMSA-UHFFFAOYSA-N
Temperature: 77 K
Tabular data in the source: 0
pressure (bar)	uptake (molecules/formula unit)
0.0664164	0.0128009
0.128455	0.0205557
0.148195	0.0205557
0.217284	0.0205557
0.317393	0.0128009
0.363922	0.0128009
0.51338	0.0283106
0.617718	0.0128009
0.810885	0.0283106
0.963163	0.0283106
