Adsorption isotherm of Water on {Ce(tci)}n
DOI: 10.1002/anie.200703086
Adsorbate Water: InChIKey XLYOFNOQVPJJNP-UHFFFAOYSA-N
Temperature: 195 K
Tabular data in the source: 0
pressure (bar)	uptake (molecules/formula unit)
0.0494967	0.0128009
0.112946	1.66459
0.114356	0.943387
0.114356	2.57191
0.121406	0.237692
0.135505	3.0372
0.146785	3.30863
0.207414	3.52576
0.293423	3.5878
0.373792	3.69637
0.516199	3.78167
0.785505	4.04534
0.870104	4.23146
