Adsorption isotherm of Nitrogen on IRMOF-1
DOI: 10.1021/Ja0752336
Adsorbate Nitrogen: InChIKey IJGRMHOSHXDMSA-UHFFFAOYSA-N
Temperature: 77 K
Tabular data in the source: 0
pressure (bar)	uptake (cm3(STP)/g)
0.00479277	293.213
0.00531648	412.67
0.0056815	495.928
0.00942684	550.226
0.00966489	604.525
0.00980772	637.104
0.0134896	676.923
0.0241226	702.262
0.0347238	720.362
0.0488164	734.842
0.05937	742.081
0.0839846	756.561
0.101553	763.801
0.119105	767.421
0.161224	774.661
0.1823	781.9
0.245463	789.14
0.438459	810.86
0.491084	814.48
0.536679	814.48
0.589304	818.1
0.634899	818.1
0.680478	814.48
0.72958	814.48
0.778698	818.1
0.883917	818.1
0.915499	821.719
0.940034	818.1
0.961109	825.339
