Adsorption isotherm of Nitrogen on IRMOF-1
DOI: 10.1021/Ja0752336
Adsorbate Nitrogen: InChIKey IJGRMHOSHXDMSA-UHFFFAOYSA-N
Temperature: 77 K
Tabular data in the source: 0
pressure (bar)	uptake (cm3(STP)/g)
0.00436428	195.475
0.00587194	539.367
0.008919	434.389
0.00969663	611.765
0.0168699	647.964
0.0345175	673.303
0.048626	691.403
0.0767319	702.262
0.104822	709.502
0.11536	713.122
0.160986	720.362
0.178523	720.362
0.245225	734.842
0.29785	738.462
0.339969	745.701
0.389071	745.701
0.438189	749.321
0.490799	749.321
0.532886	749.321
0.578481	749.321
0.641596	745.701
0.6837	749.321
0.736277	742.081
0.848511	742.081
0.873062	742.081
0.925671	742.081
0.964251	742.081
