Adsorption isotherm of Nitrogen on IRMOF-1
DOI: 10.1021/Ja0752336
Adsorbate Nitrogen: InChIKey IJGRMHOSHXDMSA-UHFFFAOYSA-N
Temperature: 77 K
Tabular data in the source: 0
pressure (bar)	uptake (cm3(STP)/g)
0.00520922	0.00520922
0.00781383	610.608
0.0104184	819.109
0.0130231	860.056
0.0182323	923.334
0.0260461	949.368
0.046883	971.629
0.10158	1008.65
0.143254	1023.39
0.200555	1038.06
0.239624	1045.36
0.294321	1056.32
0.346413	1067.29
0.393296	1070.83
0.43497	1078.12
0.492272	1077.9
0.539155	1081.44
0.586038	1084.99
0.640734	1081.05
0.679804	1088.35
0.737105	1080.69
0.786593	1084.22
0.833476	1084.04
0.882963	1091.3
0.927242	1087.4
