Adsorption isotherm of Methane on CuBTC
DOI: 10.1021/Jp2090878
Adsorbate Methane: InChIKey VNWKTOKETHGBQD-UHFFFAOYSA-N
Temperature: 77 K
Tabular data in the source: 0
pressure (bar)	uptake (molecules/unitcell)
2.6e-07	7.36607
3.7e-07	13.0467
5e-07	30.0888
6.11e-07	75.0972
7.48e-07	90.3913
1.18e-06	100.442
1.94e-06	117.921
3.38e-06	135.4
5.06e-06	153.753
1.25e-05	164.24
3.25e-05	172.543
0.000133	181.719
0.000329	186.089
0.000774	188.711
