Adsorption isotherm of Methane on CuBTC
DOI: 10.1021/Jp2090878
Adsorbate Methane: InChIKey VNWKTOKETHGBQD-UHFFFAOYSA-N
Temperature: 77 K
Tabular data in the source: 0
pressure (bar)	uptake (molecules/unitcell)
1.15e-12	8.677
4.72e-12	16.1056
3.71e-11	32.2736
1.07e-10	37.5173
1.03e-09	42.3241
3.43e-09	91.7022
1.04e-08	103.938
6.04e-08	162.492
2.73e-07	169.921
3.06e-06	181.719
0.000103	186.963
0.00115779	189.585
0.195975	193.08
