Adsorption isotherm of Methane on CuBTC
DOI: 10.1021/Jp2090878
Adsorbate Methane: InChIKey VNWKTOKETHGBQD-UHFFFAOYSA-N
Temperature: 87 K
Tabular data in the source: 0
pressure (bar)	uptake (molecules/unitcell)
1.12e-06	14.3577
1.51e-06	24.4081
1.67e-06	36.2064
2.38e-06	58.9291
3.38e-06	75.9711
5.59e-06	82.9627
7.19e-06	90.3913
8.8e-06	134.526
1.02e-05	152.442
3.42e-05	158.996
8.9e-05	163.366
0.00022	168.173
0.0009	173.416
