Adsorption isotherm of Methane on CuBTC
DOI: 10.1021/Jp2090878
Adsorbate Methane: InChIKey VNWKTOKETHGBQD-UHFFFAOYSA-N
Temperature: 77 K
Tabular data in the source: 0
pressure (bar)	uptake (molecules/unitcell)
1.1e-12	5.61818
5.22e-12	6.49213
2.03e-11	7.36607
1.02e-10	8.24002
5.61e-10	13.9207
1.97e-09	27.4669
1.04e-08	31.8367
9.99e-08	33.5846
1.35e-07	37.9543
1.49e-07	63.7358
1.83e-07	96.5089
3.02e-07	105.248
5.81e-07	113.551
1.01e-06	122.29
3.93e-06	182.593
9.73e-06	184.341
0.00104696	192.206
0.0105919	196.139
0.107156	199.635
