Adsorption isotherm of Methane on CuBTC
DOI: 10.1021/Jp2090878
Adsorbate Methane: InChIKey VNWKTOKETHGBQD-UHFFFAOYSA-N
Temperature: 77 K
Tabular data in the source: 0
pressure (bar)	uptake (molecules/unitcell)
4.72e-12	1.24843
1.07e-10	0.811453
3.07e-10	2.12238
9.77e-10	4.30725
2.95e-09	6.05515
9.88e-09	7.36607
2.99e-08	8.24002
2.24e-07	13.9207
2.35e-07	84.7106
2.47e-07	27.9039
4.75e-07	92.5762
6.43e-07	96.9459
7.48e-07	104.374
7.48e-07	163.366
9.25e-06	169.484
7.65e-05	174.727
0.000313	180.845
0.00173149	184.778
0.0111384	188.711
0.0921445	192.643
