Adsorption isotherm of Methane on CuBTC
DOI: 10.1021/Jp2090878
Adsorbate Methane: InChIKey VNWKTOKETHGBQD-UHFFFAOYSA-N
Temperature: 77 K
Tabular data in the source: 0
pressure (bar)	uptake (molecules/unitcell)
2.6e-07	7.80305
3.34e-07	13.0467
5.26e-07	30.0888
5.81e-07	74.6602
7.86e-07	90.3913
1.24e-06	100.879
2.04e-06	118.358
3.06e-06	134.526
4.14e-06	145.013
4.81e-06	152.879
7.95e-06	159.87
1.19e-05	164.677
3.42e-05	172.106
0.000133	180.845
0.000383	186.526
0.000774	188.711
