Adsorption isotherm of Methane on CuBTC
DOI: 10.1021/Jp2090878
Adsorbate Methane: InChIKey VNWKTOKETHGBQD-UHFFFAOYSA-N
Temperature: 77 K
Tabular data in the source: 0
pressure (bar)	uptake (molecules/unitcell)
1.15e-12	3.87028
4.96e-12	6.49213
9.18e-11	7.36607
3.95e-10	9.98792
1.08e-09	19.6014
1.97e-09	27.4669
1.15e-08	31.3997
9.99e-08	33.1476
1.57e-07	64.1728
1.74e-07	94.761
6.43e-07	113.551
1.12e-06	122.727
1.94e-06	176.912
1.08e-05	185.215
0.00104696	192.206
0.0105919	197.013
0.0968987	200.509
