Adsorption isotherm of Methane on CuBTC
DOI: 10.1021/Jp2090878
Adsorbate Methane: InChIKey VNWKTOKETHGBQD-UHFFFAOYSA-N
Temperature: 87 K
Tabular data in the source: 0
pressure (bar)	uptake (molecules/unitcell)
9.54e-12	2.55935
1.18e-10	5.61818
1.03e-09	7.36607
1.09e-08	9.11397
3.14e-08	14.7946
1.16e-07	27.9039
3.34e-07	31.3997
1.06e-06	33.1476
2.15e-06	37.0804
3.74e-06	88.2064
4.35e-06	100.442
1.08e-05	114.862
3.25e-05	171.669
0.000109	179.971
0.00110098	187.4
0.0105919	192.643
0.107156	196.139
