Adsorption isotherm of Methane on CuBTC
DOI: 10.1021/Jp2090878
Adsorbate Methane: InChIKey VNWKTOKETHGBQD-UHFFFAOYSA-N
Temperature: 77 K
Tabular data in the source: 0
pressure (bar)	uptake (molecules/unitcell)
1.15e-12	1.24843
4.32e-11	2.99633
4.15e-10	13.0467
4.2e-09	37.0804
7.68e-09	83.3997
4.04e-08	89.9543
1.65e-07	99.5678
2.47e-07	145.45
3.52e-07	162.055
1.76e-06	172.98
1.08e-05	178.66
5.66e-05	184.341
0.000403	186.089
0.0968987	192.206
0.206086	193.08
