Adsorption isotherm of Methane on CuBTC
DOI: 10.1021/Jp2090878
Adsorbate Methane: InChIKey VNWKTOKETHGBQD-UHFFFAOYSA-N
Temperature: 77 K
Tabular data in the source: 0
pressure (bar)	uptake (molecules/unitcell)
1.15e-12	0.374478
1.06e-11	0.811453
7.14e-11	0.811453
3.4e-10	1.24843
1.03e-09	4.30725
1.15e-08	7.80305
1.05e-07	10.4249
1.92e-07	13.9207
2.35e-07	84.2736
7.11e-07	97.3829
7.48e-07	103.938
7.48e-07	163.803
8.8e-06	169.484
6.92e-05	174.727
0.000298	180.845
0.00164653	184.778
0.0105919	188.711
0.112685	193.954
