Adsorption isotherm of Methane on CuBTC
DOI: 10.1021/Jp2090878
Adsorbate Methane: InChIKey VNWKTOKETHGBQD-UHFFFAOYSA-N
Temperature: 87 K
Tabular data in the source: 0
pressure (bar)	uptake (molecules/unitcell)
1.15e-12	0.811453
1.02e-10	1.24843
3.27e-09	1.24843
1.15e-08	2.12238
1.22e-07	6.49213
7.48e-07	8.677
2.38e-06	11.2988
3.93e-06	35.3325
4.14e-06	23.0972
4.14e-06	83.3997
6.5e-06	96.5089
7.56e-06	125.349
8.36e-06	152.442
9.73e-06	162.055
0.000109	168.173
0.000346	171.669
0.00110098	175.164
0.0117131	180.845
0.112685	187.837
