Adsorption isotherm of Carbon Dioxide on Carbon
DOI: 10.1007/s10450-013-9595-3
Adsorbate Carbon Dioxide: InChIKey CURLTUGMZLYLDI-UHFFFAOYSA-N
Temperature: 573 K
Tabular data in the source: 0
pressure (bar)	uptake (mmol/g)
0.00702701	0.0422596
0.0154777	0.0901469
0.0253369	0.136908
0.0450552	0.185922
0.0689988	0.232119
0.108435	0.268738
0.164773	0.299161
0.246464	0.321133
0.361957	0.336344
0.490126	0.346485
0.645055	0.352682
0.780266	0.356062
0.918295	0.358879
0.9859	0.360006
