Adsorption isotherm of Carbon Dioxide on Carbon
DOI: 10.1007/s10450-013-9595-3
Adsorbate Carbon Dioxide: InChIKey CURLTUGMZLYLDI-UHFFFAOYSA-N
Temperature: 573 K
Tabular data in the source: 0
pressure (bar)	uptake (mmol/g)
0.000557	0.0718386
0.00337418	0.116909
0.00844461	0.15705
0.0202756	0.204233
0.0399939	0.250712
0.0709798	0.29367
0.105909	0.330289
0.139149	0.361275
0.18929	0.395078
0.242811	0.42536
0.301402	0.455641
0.372388	0.48381
0.415769	0.501416
