Adsorption isotherm of Carbon Dioxide on Carbon
DOI: 10.1007/s10450-013-9595-3
Adsorbate Carbon Dioxide: InChIKey CURLTUGMZLYLDI-UHFFFAOYSA-N
Temperature: 573 K
Tabular data in the source: 0
pressure (bar)	uptake (mmol/g)
0.00492184	0.00254905
0.0211301	0.0715773
0.0993113	0.127258
0.147936	0.153954
0.199421	0.174166
0.502612	0.185989
0.801988	0.181412
0.99172	0.181412
