Adsorption isotherm of Carbon Dioxide on Carbon
DOI: 10.1007/s10450-013-9595-3
Adsorbate Carbon Dioxide: InChIKey CURLTUGMZLYLDI-UHFFFAOYSA-N
Temperature: 573 K
Tabular data in the source: 0
pressure (bar)	uptake (mmol/g)
0.00515504	0.00300468
0.00515504	0.0899574
0.00944547	0.210089
0.0194565	0.301619
0.0308976	0.401156
0.0523498	0.476668
0.085243	0.543027
0.142449	0.587647
0.212526	0.615106
0.316926	0.633412
0.425617	0.642565
0.545749	0.650573
0.678752	0.654006
0.796024	0.657438
0.923307	0.66087
0.993384	0.66087
