Adsorption isotherm of Carbon Dioxide on Carbon
DOI: 10.1007/s10450-013-9595-3
Adsorbate Carbon Dioxide: InChIKey CURLTUGMZLYLDI-UHFFFAOYSA-N
Temperature: 573 K
Tabular data in the source: 0
pressure (bar)	uptake (mmol/g)
0.0211115	0.161133
0.101393	0.242823
0.152097	0.273809
0.199985	0.281696
0.498576	0.350429
0.799985	0.36902
0.990126	0.380851
