Adsorption isotherm of Carbon Dioxide on Carbon
DOI: 10.1007/s10450-013-9595-3
Adsorbate Carbon Dioxide: InChIKey CURLTUGMZLYLDI-UHFFFAOYSA-N
Temperature: 573 K
Tabular data in the source: 0
pressure (bar)	uptake (mmol/g)
0.00492184	0.0239059
0.0192233	0.0635685
0.0325713	0.0910272
0.0611741	0.120774
0.0954976	0.139843
0.14889	0.155098
0.21849	0.165776
0.310019	0.172641
0.432058	0.17798
0.535028	0.181412
0.657067	0.184082
0.781013	0.184082
0.98886	0.185607
