Adsorption isotherm of Carbon Dioxide on Carbon
DOI: 10.1007/s10450-013-9595-3
Adsorbate Carbon Dioxide: InChIKey CURLTUGMZLYLDI-UHFFFAOYSA-N
Temperature: 573 K
Tabular data in the source: 0
pressure (bar)	uptake (mmol/g)
0.000557	0.00282452
0.00675446	0.0647964
0.0163319	0.132402
0.0343601	0.216909
0.0512615	0.27043
0.077177	0.32043
0.11267	0.366909
0.162247	0.400008
0.217459	0.424655
0.275487	0.441557
0.335769	0.453529
0.410135	0.462684
