Adsorption isotherm of Carbon Dioxide on Carbon
DOI: 10.1007/s10450-013-9595-3
Adsorbate Carbon Dioxide: InChIKey CURLTUGMZLYLDI-UHFFFAOYSA-N
Temperature: 573 K
Tabular data in the source: 0
pressure (bar)	uptake (mmol/g)
0.00492184	0.0208549
0.0125493	0.0715773
0.0211301	0.112384
0.0325713	0.154335
0.0468727	0.195142
0.0726153	0.233279
0.100265	0.263026
0.142216	0.291629
0.195608	0.31146
0.252813	0.324427
0.326227	0.336249
0.414896	0.345402
0.51882	0.352267
0.620837	0.357225
0.742876	0.36142
0.857287	0.364089
0.99172	0.366759
