Adsorption isotherm of Carbon Dioxide on Carbon
DOI: 10.1007/s10450-013-9595-3
Adsorbate Carbon Dioxide: InChIKey CURLTUGMZLYLDI-UHFFFAOYSA-N
Temperature: 573 K
Tabular data in the source: 0
pressure (bar)	uptake (mmol/g)
0.00112066	0.0584583
0.00112066	0.105641
0.00675446	0.154233
0.0140784	0.190853
0.0242193	0.223951
0.0405573	0.261275
0.065346	0.299303
0.0997122	0.337332
0.138585	0.369726
0.184219	0.40212
0.239994	0.434515
0.289008	0.457754
0.348163	0.481698
0.416332	0.507754
