Adsorption isotherm of Carbon Dioxide on Carbon
DOI: 10.1007/s10450-013-9595-3
Adsorbate Carbon Dioxide: InChIKey CURLTUGMZLYLDI-UHFFFAOYSA-N
Temperature: 573 K
Tabular data in the source: 0
pressure (bar)	uptake (mmol/g)
0.00280166	0.00113286
0.00561856	0.0270484
0.0211115	0.0816962
0.0985763	0.171274
0.146464	0.189302
0.201393	0.203386
0.499985	0.232119
0.801393	0.24564
0.990126	0.236062
