Adsorption isotherm of Carbon Dioxide on Carbon
DOI: 10.1007/s10450-013-9595-3
Adsorbate Carbon Dioxide: InChIKey CURLTUGMZLYLDI-UHFFFAOYSA-N
Temperature: 573 K
Tabular data in the source: 0
pressure (bar)	uptake (mmol/g)
0.00561856	0.0219779
0.0211115	0.0760624
0.0380129	0.108738
0.0619566	0.146485
0.0943509	0.17071
0.142238	0.189865
0.195759	0.204513
0.260548	0.214654
0.361957	0.223668
0.490126	0.229865
0.630971	0.234372
0.781675	0.237189
0.892942	0.238879
0.990126	0.240569
