Adsorption isotherm of Carbon Dioxide on Carbon
DOI: 10.1007/s10450-013-9595-3
Adsorbate Carbon Dioxide: InChIKey CURLTUGMZLYLDI-UHFFFAOYSA-N
Temperature: 573 K
Tabular data in the source: 0
pressure (bar)	uptake (mmol/g)
0.00224742	0.00141607
0.00393756	0.0380358
0.013515	0.116205
0.0247826	0.189444
0.0428108	0.260571
0.0647826	0.314092
0.0929516	0.354937
0.127881	0.390148
0.171825	0.416205
0.233233	0.440853
0.291261	0.454937
0.350416	0.462684
0.407881	0.469022
