Adsorption isotherm of Carbon Dioxide on Carbon
DOI: 10.1007/s10450-013-9595-3
Adsorbate Carbon Dioxide: InChIKey CURLTUGMZLYLDI-UHFFFAOYSA-N
Temperature: 573 K
Tabular data in the source: 0
pressure (bar)	uptake (mmol/g)
0.0220836	0.169971
0.102172	0.225651
0.150796	0.270653
0.199421	0.309934
0.500705	0.346927
0.800081	0.377819
0.990767	0.385827
