Adsorption isotherm of Carbon Dioxide on Carbon
DOI: 10.1007/s10450-013-9595-3
Adsorbate Carbon Dioxide: InChIKey CURLTUGMZLYLDI-UHFFFAOYSA-N
Temperature: 573 K
Tabular data in the source: 0
pressure (bar)	uptake (mmol/g)
0.00396841	0.00483728
0.00396841	0.0860694
0.00587527	0.127258
0.0106424	0.149377
0.0201767	0.179124
0.0449658	0.209634
0.083103	0.236711
0.146983	0.265695
0.211816	0.287434
0.301438	0.30879
0.404408	0.328622
0.526447	0.347309
0.627511	0.360275
0.754317	0.374386
0.842986	0.382776
0.98886	0.396506
