Adsorption isotherm of Carbon Dioxide on Carbon
DOI: 10.1007/s10450-013-9595-3
Adsorbate Carbon Dioxide: InChIKey CURLTUGMZLYLDI-UHFFFAOYSA-N
Temperature: 573 K
Tabular data in the source: 0
pressure (bar)	uptake (mmol/g)
0.00492184	0.0734841
0.0135027	0.0929341
0.0411521	0.112003
0.0773824	0.124969
0.128868	0.137173
0.213723	0.15014
0.313833	0.160437
0.420617	0.169971
0.534075	0.177217
0.62179	0.182175
0.7219	0.186751
0.820103	0.191328
0.989814	0.197049
