Adsorption isotherm of Carbon Dioxide on Carbon
DOI: 10.1007/s10450-013-9595-3
Adsorbate Carbon Dioxide: InChIKey CURLTUGMZLYLDI-UHFFFAOYSA-N
Temperature: 573 K
Tabular data in the source: 0
pressure (bar)	uptake (mmol/g)
0.00421011	0.0771892
0.0112524	0.0997244
0.0267453	0.122823
0.0619566	0.146485
0.14083	0.1724
0.218295	0.188738
0.34083	0.207893
0.476041	0.221415
0.615478	0.233246
0.718295	0.241133
0.809844	0.24733
0.911252	0.252964
0.983083	0.256344
