Adsorption isotherm of Carbon Dioxide on Carbon
DOI: 10.1007/s10450-013-9595-3
Adsorbate Carbon Dioxide: InChIKey CURLTUGMZLYLDI-UHFFFAOYSA-N
Temperature: 573 K
Tabular data in the source: 0
pressure (bar)	uptake (mmol/g)
0.00229475	0.0899386
0.0123058	0.110104
0.0237469	0.12984
0.0423388	0.149576
0.0738019	0.168024
0.110986	0.185615
0.173912	0.204922
0.242559	0.221655
0.332658	0.2371
0.421327	0.251259
0.532878	0.265846
0.621547	0.275714
0.727377	0.285582
0.837498	0.29545
0.983373	0.306176
