Adsorption isotherm of Carbon Dioxide on Carbon
DOI: 10.1007/s10450-013-9595-3
Adsorbate Carbon Dioxide: InChIKey CURLTUGMZLYLDI-UHFFFAOYSA-N
Temperature: 573 K
Tabular data in the source: 0
pressure (bar)	uptake (mmol/g)
0.00229475	0.00300468
0.00515504	0.295898
0.015166	0.37141
0.0266072	0.405733
0.05521	0.45493
0.0881033	0.492686
0.136728	0.529297
0.226827	0.572774
0.335518	0.608241
0.482823	0.645997
0.608675	0.670023
0.713076	0.686041
0.838928	0.704347
0.989093	0.723797
