Adsorption isotherm of Carbon Dioxide on Carbon
DOI: 10.1007/s10450-013-9595-3
Adsorbate Carbon Dioxide: InChIKey CURLTUGMZLYLDI-UHFFFAOYSA-N
Temperature: 573 K
Tabular data in the source: 0
pressure (bar)	uptake (mmol/g)
0.0165962	0.104955
0.0938239	0.185615
0.146739	0.205351
0.199654	0.227232
0.498554	0.252546
0.798884	0.292018
0.987663	0.30017
