Adsorption isotherm of Carbon Dioxide on Carbon
DOI: 10.1007/s10450-013-9595-3
Adsorbate Carbon Dioxide: InChIKey CURLTUGMZLYLDI-UHFFFAOYSA-N
Temperature: 573 K
Tabular data in the source: 0
pressure (bar)	uptake (mmol/g)
0.00280166	0.12902
0.00421011	0.0833864
0.0182946	0.162823
0.0337876	0.193809
0.0746326	0.227612
0.135196	0.259724
0.223928	0.287893
0.314069	0.308738
0.423928	0.328457
0.552097	0.345922
0.671816	0.361133
0.818295	0.375217
0.990126	0.390429
