Adsorption isotherm of Carbon Dioxide on Carbon
DOI: 10.1007/s10450-013-9595-3
Adsorbate Carbon Dioxide: InChIKey CURLTUGMZLYLDI-UHFFFAOYSA-N
Temperature: 573 K
Tabular data in the source: 0
pressure (bar)	uptake (mmol/g)
0.0208866	0.381707
0.0995445	0.504127
0.15103	0.560188
0.198224	0.543027
0.495694	0.645997
0.803175	0.720364
0.989093	0.710067
