Adsorption isotherm of Carbon Dioxide on Carbon
DOI: 10.1007/s10450-013-9595-3
Adsorbate Carbon Dioxide: InChIKey CURLTUGMZLYLDI-UHFFFAOYSA-N
Temperature: 573 K
Tabular data in the source: 0
pressure (bar)	uptake (mmol/g)
0.00229475	0.000698
0.00801532	0.0380244
0.0208866	0.0847901
0.0337579	0.116968
0.0566402	0.155582
0.0895335	0.185615
0.132438	0.213932
0.206805	0.236671
0.299764	0.253833
0.405595	0.264559
0.531448	0.271424
0.684473	0.27743
0.814616	0.281721
0.991954	0.284724
