Adsorption isotherm of Hydrogen on IRMOF-1
DOI: 10.1021/Jp800981f
Adsorbate Hydrogen: InChIKey UFHFLCQGNIYNRP-UHFFFAOYSA-N
Temperature: 65 K
Tabular data in the source: 0
pressure (bar)	uptake (mmol/g)
0.437515	9.29303
0.883976	13.7042
1.33361	16.3831
1.96362	19.8502
2.41528	21.4268
3.31917	24.265
4.2245	26.3158
5.13012	28.2091
6.30905	29.7885
7.48855	31.053
9.2135	32.3196
10.3936	33.2692
11.9379	33.9051
13.3912	34.5408
14.8455	34.704
16.5722	35.0258
18.3903	35.0329
20.0267	35.0394
22.1176	35.0476
24.2997	34.8987
26.573	34.5927
28.0278	34.4409
29.2099	34.2881
31.2107	33.8235
33.4843	33.3601
35.4852	32.8955
36.9397	32.9012
