Adsorption isotherm of Hydrogen on IRMOF-1
DOI: 10.1021/Jp800981f
Adsorbate Hydrogen: InChIKey UFHFLCQGNIYNRP-UHFFFAOYSA-N
Temperature: 87 K
Tabular data in the source: 0
pressure (bar)	uptake (mmol/g)
0.0980392	0.901488
0.686275	2.16154
1.17647	3.60242
1.76471	5.04285
2.54902	6.84318
3.13725	8.28361
4.21569	10.263
4.90196	11.3422
5.98039	12.9608
6.76471	14.0396
7.84314	15.4778
8.72549	16.3758
9.60784	17.4541
10.4902	18.1717
11.4706	19.0692
12.3529	19.7868
13.3333	20.6843
14.3137	21.221
15.098	21.939
15.9804	22.4762
16.9608	23.1933
17.8431	23.5501
18.7255	24.2677
19.7059	24.4436
20.5882	24.9808
21.5686	25.5176
22.451	25.8743
23.4314	26.2307
24.2157	26.7683
25.098	26.9447
26.0784	27.4815
27.0588	27.6574
27.9412	28.0142
28.9216	28.3706
29.8039	28.547
30.7843	28.9033
31.5686	29.2606
32.549	29.4365
35.1961	30.1461
36.1765	30.3221
37.0588	30.6789
38.0392	30.8549
38.9216	31.0313
39.902	31.2072
40.6863	31.3841
41.6667	31.56
42.549	31.7365
43.5294	31.9124
44.8039	31.9067
