Adsorption isotherm of Hydrogen on IRMOF-1
DOI: 10.1021/Jp800981f
Adsorbate Hydrogen: InChIKey UFHFLCQGNIYNRP-UHFFFAOYSA-N
Temperature: 60 K
Tabular data in the source: 0
pressure (bar)	uptake (mmol/g)
0.698119	15.9082
0.875607	18.2711
1.14602	19.532
1.59422	22.9983
2.0453	24.8899
2.49695	26.4664
2.85741	28.2001
3.5815	29.9353
4.30589	31.5129
5.12175	32.776
6.1203	33.5673
6.93559	35.1453
8.20687	35.9377
9.56963	36.4155
10.5685	37.0494
11.9315	37.3697
12.7491	37.6879
13.7488	37.8493
15.3852	37.8557
16.6582	37.7032
18.2033	37.8668
19.9312	37.5587
21.7493	37.5658
23.2956	37.0995
24.5687	36.947
26.7513	36.4831
28.1155	36.1736
30.0258	35.5512
31.39	35.2416
32.8451	34.9323
