Adsorption isotherm of Hydrogen on IRMOF-1
DOI: 10.1021/Jp800981f
Adsorbate Hydrogen: InChIKey UFHFLCQGNIYNRP-UHFFFAOYSA-N
Temperature: 55 K
Tabular data in the source: 0
pressure (bar)	uptake (mmol/g)
0.294118	12.9865
0.392157	16.233
0.490196	19.4795
0.686275	21.8236
0.980392	24.1673
1.27451	26.8718
1.76471	29.395
2.45098	31.9173
3.23529	34.9803
4.01961	36.4199
4.80392	38.2202
5.68627	39.4789
6.76471	40.7367
8.03922	41.8133
9.60784	42.8886
11.1765	43.7834
12.8431	44.6778
15.098	45.3892
17.1569	46.1015
19.2157	46.4529
21.3725	46.9844
23.0392	47.1572
25.4902	47.3266
27.7451	47.4968
28.8235	47.4919
31.1765	47.6617
32.6471	47.6551
34.0196	47.8293
36.0784	47.82
37.451	47.8138
39.8039	47.8032
42.0588	47.9734
43.5294	47.7864
45	47.7798
