Adsorption isotherm of Hydrogen on IRMOF-1
DOI: 10.1021/Jp800981f
Adsorbate Hydrogen: InChIKey UFHFLCQGNIYNRP-UHFFFAOYSA-N
Temperature: 77 K
Tabular data in the source: 0
pressure (bar)	uptake (mmol/g)
0.490196	3.7859
0.980392	6.1287
1.17647	7.7513
1.56863	9.373
2.15686	11.3546
2.64706	12.7955
3.43137	14.9566
4.01961	16.2166
5.09804	18.5568
5.78431	19.636
7.15686	21.6141
7.94118	22.6928
9.11765	24.1306
10	24.8482
11.1765	26.1056
12.0588	26.8231
13.1373	27.7202
14.0196	28.4378
15.1961	29.154
16.0784	29.6912
17.2549	30.227
18.2353	30.7638
19.2157	31.4809
20.098	31.6573
21.1765	32.1936
22.1569	32.55
23.2353	32.9059
24.2157	33.2622
25.1961	33.799
26.0784	33.9754
27.2549	34.1504
28.2353	34.5068
29.3137	34.8627
30.2941	35.0387
31.2745	35.395
32.1569	35.5714
33.2353	35.9273
34.1176	35.9234
35.3922	36.098
36.3725	36.274
37.3529	36.4499
38.1373	36.6268
39.3137	36.8019
40.2941	36.9778
41.4706	37.1529
42.451	37.1485
43.4314	37.3244
44.3137	37.3205
