Adsorption isotherm of Hydrogen on IRMOF-1
DOI: 10.1021/Jp800981f
Adsorbate Hydrogen: InChIKey UFHFLCQGNIYNRP-UHFFFAOYSA-N
Temperature: 50 K
Tabular data in the source: 0
pressure (bar)	uptake (g/ml)
0.180995	0.0201246
0.81448	0.0397433
3.61991	0.0558263
8.32579	0.0623376
14.0271	0.0658237
19.457	0.0670474
24.7059	0.0675176
29.7738	0.0674857
34.7511	0.0674544
39.819	0.0669194
