Adsorption isotherm of Hydrogen on IRMOF-1
DOI: 10.1021/Jp800981f
Adsorbate Hydrogen: InChIKey UFHFLCQGNIYNRP-UHFFFAOYSA-N
Temperature: 65 K
Tabular data in the source: 0
pressure (bar)	uptake (mmol/g)
0.294118	8.83759
0.588235	11.1813
0.784314	13.1646
1.07843	15.6887
1.37255	16.5893
1.56863	18.0315
1.96078	20.1944
2.2549	21.095
2.64706	23.0775
3.13725	24.5184
4.41176	27.5792
5.09804	28.8388
6.76471	31.5371
7.54902	32.4354
9.21569	34.2318
10.098	34.9494
11.6667	36.5658
12.549	36.9226
14.2157	37.817
15.098	38.1738
16.6667	39.0686
17.6471	39.425
19.1176	39.9595
20.098	40.1355
21.6667	40.6695
22.549	40.8459
24.1176	41.1996
25	41.3761
26.5686	41.9101
27.549	41.9057
29.1176	42.2594
30	42.2554
31.5686	42.6091
32.549	42.7851
34.0196	42.9589
35	42.9544
36.5686	43.1277
37.549	43.1233
39.0196	43.2971
39.902	43.2931
41.5686	43.466
42.451	43.462
44.1176	43.4545
44.902	43.6313
