Adsorption isotherm of Hydrogen on IRMOF-1
DOI: 10.1021/Jp800981f
Adsorbate Hydrogen: InChIKey UFHFLCQGNIYNRP-UHFFFAOYSA-N
Temperature: 70 K
Tabular data in the source: 0
pressure (bar)	uptake (mmol/g)
0.79682	11.6566
1.33967	13.0761
1.88108	15.2829
2.33303	16.702
3.05626	18.9096
3.41729	20.3283
3.86924	21.7474
4.86605	23.4836
5.86345	24.9049
6.49779	26.0097
7.31423	26.9578
8.4946	27.7499
9.49228	29.0136
11.1272	29.8075
12.3078	30.4421
13.2158	31.0755
14.8513	31.5544
16.3055	31.7176
18.0319	32.1969
19.2134	32.359
20.7589	32.3651
22.3949	32.529
23.9407	32.3776
25.4861	32.3837
26.8497	32.3891
28.3952	32.3951
29.3955	32.2416
30.3955	32.2455
31.0318	32.248
32.1233	31.9374
33.1236	31.7838
34.3057	31.631
35.306	31.4775
36.0332	31.4803
36.9432	31.0115
