Adsorption isotherm of Hydrogen on IRMOF-1
DOI: 10.1021/Jp800981f
Adsorbate Hydrogen: InChIKey UFHFLCQGNIYNRP-UHFFFAOYSA-N
Temperature: 77 K
Tabular data in the source: 0
pressure (bar)	uptake (mmol/g)
0.268396	2.36325
0.536793	4.72651
1.0782	6.93335
1.34862	8.19426
1.7997	10.0858
2.43346	11.5056
3.06549	13.8703
3.88049	15.6058
4.69607	17.0263
5.78351	18.9203
6.96272	20.3423
8.23255	21.9221
9.41205	23.1866
10.9555	24.295
12.3171	25.4027
13.6796	26.038
14.7696	26.5147
16.3142	26.9933
17.9497	27.4721
19.2215	27.9496
20.4027	28.2692
21.3115	28.4303
22.2206	28.4338
23.5837	28.7542
24.6749	28.601
25.9473	28.7635
26.9473	28.7674
28.4927	28.7735
29.4924	28.9349
29.8558	29.0938
30.7651	28.9399
32.1288	28.9453
32.9472	28.791
35.0381	28.7993
37.2205	28.4929
38.9481	28.3422
39.8571	28.3458
