Adsorption isotherm of Hydrogen on IRMOF-1
DOI: 10.1021/Jp800981f
Adsorbate Hydrogen: InChIKey UFHFLCQGNIYNRP-UHFFFAOYSA-N
Temperature: 87 K
Tabular data in the source: 0
pressure (bar)	uptake (mmol/g)
0.542565	1.57693
0.904178	2.68072
1.71918	4.4162
2.0805	5.67746
2.62336	7.09692
3.25712	8.51673
4.2548	9.7805
4.97976	11.0432
5.88683	12.1491
7.15608	14.0439
8.51769	15.1516
9.7881	16.4164
11.3309	17.8398
13.0565	18.7915
14.509	19.8996
15.6899	20.3767
17.0524	21.0119
18.1427	21.3312
19.3237	21.8083
20.3231	22.1272
21.504	22.6043
22.5949	22.6086
23.8671	22.9285
25.1392	23.2485
25.9571	23.4092
27.3204	23.572
28.502	23.7342
29.5926	23.896
30.6832	24.0577
31.6832	24.0617
32.8647	24.2238
34.1374	24.2288
35.0462	24.3899
36.3189	24.3949
37.501	24.242
38.7737	24.2471
39.6825	24.4081
