Adsorption isotherm of Hydrogen on IRMOF-1
DOI: 10.1021/Jp800981f
Adsorbate Hydrogen: InChIKey UFHFLCQGNIYNRP-UHFFFAOYSA-N
Temperature: 55 K
Tabular data in the source: 0
pressure (bar)	uptake (mmol/g)
0.425682	15.7497
0.601439	19.0574
0.780947	20.318
0.868392	22.2081
0.956126	23.9407
1.49465	27.7223
1.7642	29.4557
2.57718	32.2935
3.21094	33.7133
3.66202	35.6048
4.47876	36.3955
5.29462	37.6585
6.83862	38.452
7.8366	39.5583
8.92663	40.035
10.2894	40.5128
11.2891	40.6742
12.6527	40.6796
13.8345	40.6842
14.7436	40.6878
15.38	40.6903
16.1078	40.3782
17.5626	40.2265
18.3811	40.0722
18.745	39.9162
20.1999	39.7644
21.1092	39.6105
21.5643	39.2974
22.2916	39.3002
23.5652	38.8328
24.4749	38.5214
26.749	37.743
28.2953	37.2766
30.4789	36.3403
