Adsorption isotherm of Hydrogen on IRMOF-1
DOI: 10.1021/Jp800981f
Adsorbate Hydrogen: InChIKey UFHFLCQGNIYNRP-UHFFFAOYSA-N
Temperature: 65 K
Tabular data in the source: 0
pressure (bar)	uptake (mmol/g)
0.976616	12.7597
1.78585	17.6448
2.50648	21.2696
3.32148	23.0051
3.59189	24.266
4.95004	27.2635
6.67354	29.3175
7.30904	29.7925
8.3073	30.7413
10.2144	31.8511
11.7589	32.3296
12.3941	32.9621
14.8475	33.6016
16.2111	33.607
19.3918	34.2495
20.7557	34.0973
24.0284	34.1102
25.392	34.1156
28.6656	33.656
29.9386	33.5036
33.2119	33.2015
34.3943	32.8912
