Adsorption isotherm of Hydrogen on IRMOF-1
DOI: 10.1021/Jp800981f
Adsorbate Hydrogen: InChIKey UFHFLCQGNIYNRP-UHFFFAOYSA-N
Temperature: 50 K
Tabular data in the source: 0
pressure (bar)	uptake (mmol/g)
0.0980392	16.0539
0.294118	20.9235
0.392157	24.3503
0.588235	27.9572
1.17647	31.0211
1.56863	33.0036
1.86275	34.8061
2.15686	36.4283
2.64706	37.8691
3.13725	39.4904
3.72549	40.9308
4.5098	42.0096
5.29412	43.0884
6.07843	43.9868
6.86275	44.8852
7.64706	45.4228
8.52941	46.3208
9.41176	46.6775
10.2941	47.0343
11.1765	47.3911
12.0588	47.7479
13.0392	48.1043
13.9216	48.2807
14.8039	48.6375
15.7843	48.8134
16.6667	48.8095
17.549	48.9859
18.5294	49.1618
19.4118	49.3382
20.3922	49.5142
21.3725	49.6902
22.1569	49.6866
23.1373	49.6822
24.1176	49.8582
25.098	49.8538
25.9804	50.0302
26.9608	50.0257
27.8431	50.0218
28.7255	50.0178
29.7059	50.0134
30.6863	50.0089
31.6667	50.0045
32.6471	50.0001
33.6275	49.9957
34.6078	49.9913
35.5882	49.9868
36.5686	49.9824
37.549	49.978
38.5294	49.9736
39.5098	49.9691
40.4902	49.9647
41.4706	49.9603
42.3529	49.7759
43.3333	49.7715
44.3137	49.7671
