Adsorption isotherm of Hydrogen on IRMOF-1
DOI: 10.1021/Jp800981f
Adsorbate Hydrogen: InChIKey UFHFLCQGNIYNRP-UHFFFAOYSA-N
Temperature: 70 K
Tabular data in the source: 0
pressure (bar)	uptake (mmol/g)
0.392157	4.14711
0.588235	7.0324
0.882353	9.01532
1.17647	11.5394
1.37255	13.162
1.76471	14.7837
2.35294	17.4868
2.84314	18.9277
3.43137	20.5485
3.82353	21.9899
4.5098	23.2495
5.19608	24.5091
5.98039	26.129
6.76471	27.2078
7.54902	28.2866
8.33333	29.3653
9.21569	30.0829
10.098	30.9809
10.7843	31.5189
11.6667	32.2365
13.1373	33.3122
14.0196	34.0297
15.4902	34.7447
16.3725	35.2818
17.8431	35.9967
18.8235	36.3531
20.1961	36.8881
21.0784	37.2449
21.9608	37.4213
22.6471	37.5986
23.6275	37.9549
25	38.3095
25.8824	38.6663
27.3529	39.0204
28.2353	39.1968
29.8039	39.3701
30.7843	39.7265
32.1569	39.9007
33.0392	40.0771
34.5098	40.2509
35.4902	40.4268
36.8627	40.601
37.8431	40.5966
39.3137	40.7703
40.2941	40.7659
41.6667	40.9401
42.6471	41.1161
43.6275	41.1117
44.5098	41.1077
