Adsorption isotherm of Hydrogen on IRMOF-1
DOI: 10.1021/Jp800981f
Adsorbate Hydrogen: InChIKey UFHFLCQGNIYNRP-UHFFFAOYSA-N
Temperature: 70 K
Tabular data in the source: 0
pressure (bar)	uptake (mmol/g)
0.98008	10.87
2.06492	14.1813
2.78613	17.4912
3.96303	20.173
5.14022	22.6973
5.50241	23.4861
6.22824	24.2764
7.49865	25.5412
9.76732	27.7549
12.1286	29.024
14.4908	29.8207
16.9436	30.7753
19.216	30.9417
20.5785	31.577
24.033	31.5906
24.3961	31.907
27.8503	32.078
28.8509	31.767
31.5781	31.7778
33.6693	31.6285
37.5787	31.4864
