Adsorption isotherm of Hydrogen on IRMOF-1
DOI: 10.1021/Jp800981f
Adsorbate Hydrogen: InChIKey UFHFLCQGNIYNRP-UHFFFAOYSA-N
Temperature: 50 K
Tabular data in the source: 0
pressure (bar)	uptake (mmol/g)
0.671568	30.3963
0.673877	29.1364
2.11138	38.4334
3.37948	40.958
3.83172	42.2197
5.73762	43.9595
7.19216	43.9652
8.19215	43.9691
8.82706	44.759
10.9197	43.8223
11.6449	44.9276
13.9197	43.8342
14.3731	44.4659
14.8305	42.8929
18.4683	42.1198
19.1026	43.2246
19.5586	42.4391
22.1069	40.8743
22.7427	41.1917
24.6541	39.9394
27.1103	39.0043
29.7501	37.1249
31.205	36.9731
34.2084	35.0952
