Adsorption isotherm of Hydrogen on IRMOF-1
DOI: 10.1021/Jp800981f
Adsorbate Hydrogen: InChIKey UFHFLCQGNIYNRP-UHFFFAOYSA-N
Temperature: 87 K
Tabular data in the source: 0
pressure (bar)	uptake (mmol/g)
0.901292	4.2555
2.25944	7.25296
3.43692	9.6198
4.16361	9.93762
5.3408	12.4619
7.88104	15.3066
8.69835	15.7822
10.4224	17.5213
12.9644	19.4211
13.6005	19.581
15.5982	20.8487
18.2328	21.804
18.6867	22.1207
20.8671	22.9167
23.6835	23.8727
24.1384	23.717
27.773	24.6762
29.1369	24.5241
31.9533	25.48
34.4985	25.6475
37.4069	25.974
39.77	26.2982
