Adsorption isotherm of Hydrogen on IRMOF-1
DOI: 10.1021/Jp800981f
Adsorbate Hydrogen: InChIKey UFHFLCQGNIYNRP-UHFFFAOYSA-N
Temperature: 53 K
Tabular data in the source: 0
pressure (bar)	uptake (g/ml)
0.361991	0.0301864
2.26244	0.0477845
5.88235	0.0563152
8.86878	0.0598184
11.9457	0.0620632
15.0226	0.0630502
19.0045	0.0645346
22.8054	0.0657685
26.6063	0.0659962
30.2262	0.0659734
34.0271	0.0659495
37.4661	0.0656763
