Adsorption isotherm of Hydrogen on IRMOF-1
DOI: 10.1021/Jp800981f
Adsorbate Hydrogen: InChIKey UFHFLCQGNIYNRP-UHFFFAOYSA-N
Temperature: 55 K
Tabular data in the source: 0
pressure (bar)	uptake (g/ml)
0.271493	0.0203757
1.71946	0.041247
4.25339	0.0505393
7.14932	0.0555525
10.3167	0.0585515
13.4842	0.0605441
16.5611	0.0620342
19.5475	0.0627701
24.6154	0.0637446
29.5023	0.064217
34.2986	0.0644384
39.0045	0.0644088
