Adsorption isotherm of Hydrogen on IRMOF-1
DOI: 10.1021/Jp800981f
Adsorbate Hydrogen: InChIKey UFHFLCQGNIYNRP-UHFFFAOYSA-N
Temperature: 60 K
Tabular data in the source: 0
pressure (bar)	uptake (mmol/g)
0.0980392	8.29732
0.392157	11.7233
0.588235	15.3302
0.784314	16.9528
1.07843	20.018
1.27451	21.4602
1.96078	25.0648
2.45098	27.2272
2.7451	27.9475
3.23529	29.5687
4.01961	31.7298
4.5098	32.8099
5.29412	34.2495
5.98039	35.1483
6.66667	36.2275
7.84314	37.3045
8.33333	37.8435
9.41176	38.7406
10.7843	39.6363
11.5686	40.3543
12.1569	40.532
13.0392	41.0692
13.8235	41.2461
14.6078	41.7837
15.4902	42.1405
16.0784	42.3182
17.6471	42.8523
18.2353	43.03
18.7255	43.3886
19.7059	43.5646
21.2745	43.9183
22.1569	43.9143
22.549	44.0929
23.4314	44.2693
23.8235	44.2675
24.8039	44.4435
25.098	44.6226
25.9804	44.6186
26.3725	44.6168
27.2549	44.7932
27.6471	44.7915
28.6275	44.9674
30.1961	45.1407
31.0784	45.1367
32.7451	45.3096
33.6275	45.486
35.2941	45.4785
36.2745	45.4741
39.2157	45.6412
40	45.6377
40.4902	45.8158
41.3725	45.6315
43.0392	45.8044
43.8235	45.8008
