Adsorption isotherm of Hydrogen on IRMOF-1
DOI: 10.1021/Jp800981f
Adsorbate Hydrogen: InChIKey UFHFLCQGNIYNRP-UHFFFAOYSA-N
Temperature: 77 K
Tabular data in the source: 0
pressure (bar)	uptake (mmol/g)
0.627124	5.04182
1.5287	9.13985
2.52293	12.2934
3.06491	14.1852
3.60863	15.1323
4.78611	17.4991
5.2395	18.1308
5.96446	19.3935
6.50904	19.8681
7.14309	21.1304
8.59619	21.9235
9.77482	23.6604
10.9558	24.1375
11.5904	25.0849
12.3185	24.6153
13.5886	26.0377
14.4969	26.5137
15.4957	27.1475
15.9511	26.6769
17.4945	27.7853
19.8576	28.1096
22.2198	28.9063
24.7646	29.2313
25.7646	29.2352
27.4004	29.5566
29.7628	30.1958
31.2177	30.0441
32.0358	30.0473
34.944	30.5312
35.1267	30.0594
38.3991	30.2298
39.0355	30.2323
