Adsorption isotherm of Hydrogen on IRMOF-1
DOI: 10.1021/Jp800981f
Adsorbate Hydrogen: InChIKey UFHFLCQGNIYNRP-UHFFFAOYSA-N
Temperature: 50 K
Tabular data in the source: 0
pressure (bar)	uptake (mmol/g)
0.326982	20.0012
0.330734	17.954
0.501295	24.0964
0.505335	21.8917
0.588452	26.144
0.675897	28.0341
1.39624	31.8164
1.75583	34.0225
2.20633	36.229
2.83981	37.8063
3.38208	39.5407
4.47067	40.8049
5.28741	41.5955
5.92232	42.3854
6.92145	42.8617
8.55694	43.3406
9.55664	43.502
10.2839	43.5049
11.8294	43.511
12.9203	43.5153
15.3759	42.895
16.1944	42.7408
17.2862	42.2726
19.924	41.4956
20.8336	41.1842
21.8342	40.8732
23.2902	40.0916
23.9271	39.7791
26.4746	38.6868
28.0214	37.9055
28.6587	37.4355
31.7524	35.8729
37.1204	33.5319
