Adsorption isotherm of Hydrogen on IRMOF-1
DOI: 10.1021/Jp800981f
Adsorbate Hydrogen: InChIKey UFHFLCQGNIYNRP-UHFFFAOYSA-N
Temperature: 55 K
Tabular data in the source: 0
pressure (bar)	uptake (mmol/g)
1.22423	26.4614
1.85338	30.4009
2.30446	32.2924
3.5714	35.447
4.29665	36.5522
4.93099	37.6571
6.47355	39.2379
7.10962	39.3979
8.19936	40.0321
9.74394	40.5107
10.1985	40.5125
11.2894	40.5167
13.5615	40.8407
16.4706	40.8521
16.7442	40.3807
19.5626	40.2344
19.7459	39.4477
22.9294	38.5153
24.5652	38.8367
25.9317	37.2673
29.3865	37.1234
