Adsorption isotherm of Hydrogen on IRMOF-1
DOI: 10.1021/Jp800981f
Adsorbate Hydrogen: InChIKey UFHFLCQGNIYNRP-UHFFFAOYSA-N
Temperature: 60 K
Tabular data in the source: 0
pressure (bar)	uptake (mmol/g)
1.32553	20.7925
1.50504	22.0531
1.77574	23.1565
2.40547	26.781
3.31051	28.9893
3.76303	30.0935
5.21266	32.7763
5.21382	32.1464
6.12001	33.7248
6.84699	33.8851
8.29951	34.9932
8.84351	35.7827
9.29777	35.942
11.0233	36.8937
12.4775	37.0569
12.75	37.2154
13.1156	36.1145
14.2946	37.6939
16.8411	37.074
17.2945	37.7058
18.7494	37.554
19.5693	36.6124
21.1138	37.0909
21.4781	36.7773
23.1141	36.9413
25.3871	36.7927
25.8431	36.0071
28.6613	36.0182
29.661	36.1796
32.3914	34.4581
33.8454	34.7788
