Adsorption isotherm of Nitrogen on CuBTC-At
DOI: 10.1016/j.catcom.2013.04.019
Adsorbate Nitrogen: InChIKey IJGRMHOSHXDMSA-UHFFFAOYSA-N
Temperature: 77 K
Tabular data in the source: 0
pressure (bar)	uptake (cm3(STP)/g)
0.00251422	96.259
0.00757923	191.259
0.00757923	228.759
0.0126442	241.259
0.0261509	249.592
0.0531642	257.092
0.0801776	261.259
0.134204	264.592
0.220309	269.592
0.286154	272.926
0.380701	274.592
0.454988	276.259
0.458364	277.092
0.502261	282.092
0.524209	277.092
0.554599	285.426
0.608626	288.759
0.612003	277.926
0.654211	290.426
0.667718	280.426
0.701484	291.259
0.714991	281.259
0.748758	294.592
0.806161	297.092
0.814603	287.092
0.860188	307.092
0.910838	318.759
0.912526	304.592
0.958111	326.259
0.958111	346.259
1.0037	435.426
