Adsorption isotherm of Nitrogen on CuBTC
DOI: 10.1016/j.catcom.2013.04.019
Adsorbate Nitrogen: InChIKey IJGRMHOSHXDMSA-UHFFFAOYSA-N
Temperature: 77 K
Tabular data in the source: 0
pressure (bar)	uptake (cm3(STP)/g)
0.000826	210.426
0.000826	406.259
0.00251422	89.5924
0.00251422	352.092
0.0177092	418.759
0.0447226	426.259
0.0751126	436.259
0.113944	443.759
0.149399	448.759
0.218621	452.926
0.304726	457.926
0.395896	457.926
0.524209	460.426
0.612003	459.592
0.696419	461.259
0.767329	459.592
0.811226	459.592
0.866941	457.926
0.919279	457.926
0.961488	457.926
1.01045	459.592
