Adsorption isotherm of Nitrogen on AC-MIL-101-A(Li)
DOI: 10.1039/c4ta07197b
Article source: Figure 7
Adsorbate Nitrogen: InChIKey IJGRMHOSHXDMSA-UHFFFAOYSA-N
Kind: experiment
Temperature: 273 K
Tabular data in the source: 0
pressure (bar)	uptake (mg/g)
5.05495	0.811268
9.89011	1.48732
19.7802	2.60282
29.8901	3.6507
44.8352	5.13803
60	6.38873
80	7.84225
99.7802	8.85634
