Adsorption isotherm of Nitrogen on AC-MIL-101-A(Li)
DOI: 10.1039/c4ta07197b
Article source: Figure 4
Adsorbate Nitrogen: InChIKey IJGRMHOSHXDMSA-UHFFFAOYSA-N
Kind: experiment
Temperature: 77 K
Tabular data in the source: 0
pressure (bar)	uptake (mmol/g)
0.002132	13.1124
0.010661	15.9366
0.021322	18.1556
0.027719	19.5677
0.034115	20.3746
0.042644	21.7867
0.051173	22.7954
0.061834	24.2075
0.083156	26.2248
0.093817	27.4352
0.098081	28.2421
0.104478	29.049
0.117271	29.8559
0.119403	30.2594
0.130064	30.4611
0.147122	31.268
0.153518	31.4697
0.166311	32.0749
0.185501	32.6801
0.198294	33.6888
0.204691	34.8991
0.251599	35.9078
0.260128	36.1095
0.302772	36.3112
0.343284	36.7147
0.353945	36.7147
0.390192	37.1182
0.400853	37.1182
0.449893	37.3199
0.454158	37.3199
0.496802	37.7233
0.50533	37.7233
0.526652	37.7233
0.550107	37.9251
0.575693	38.1268
0.601279	38.1268
0.603412	38.1268
0.639659	38.3285
0.646055	38.5303
0.695096	38.9337
0.697228	38.9337
0.748401	38.9337
0.797441	39.5389
0.84435	39.9424
0.872068	40.5476
0.897655	40.951
0.953092	44.9856
0.974414	50.8357
0.976546	54.8703
0.985075	55.2738
0.993603	56.2824
