Adsorption isotherm of Nitrogen on MIL-101
DOI: 10.1039/c4ta07197b
Article source: Figure 7
Adsorbate Nitrogen: InChIKey IJGRMHOSHXDMSA-UHFFFAOYSA-N
Kind: experiment
Temperature: 273 K
Tabular data in the source: 0
pressure (bar)	uptake (mg/g)
1.97802	0.202817
3.07692	0.270423
5.27473	0.405634
7.25275	0.574648
9.89011	0.743662
15.1648	1.11549
20	1.38592
24.8352	1.72394
29.8901	2.02817
44.8352	2.87324
49.8901	3.17746
60	3.68451
70.1099	4.22535
80	4.63099
89.8901	5.10423
100	5.54366
