Adsorption isotherm of Nitrogen on AC-MIL-101
DOI: 10.1039/c4ta07197b
Article source: Figure 7
Adsorbate Nitrogen: InChIKey IJGRMHOSHXDMSA-UHFFFAOYSA-N
Kind: experiment
Temperature: 273 K
Tabular data in the source: 0
pressure (bar)	uptake (mg/g)
3.07692	0.84507
7.69231	1.11549
10.3297	1.01408
14.9451	1.65634
20	1.79155
25.0549	2.3662
29.8901	2.53521
38.4615	3.17746
44.8352	3.51549
49.8901	3.92113
60	4.46197
69.8901	5.17183
79.7802	5.74648
89.8901	6.32113
99.7802	6.92958
