Adsorption isotherm of Nitrogen on AC-MIL-101-C(Li)
DOI: 10.1039/c4ta07197b
Article source: Figure 7
Adsorbate Nitrogen: InChIKey IJGRMHOSHXDMSA-UHFFFAOYSA-N
Kind: experiment
Temperature: 273 K
Tabular data in the source: 0
pressure (bar)	uptake (mg/g)
1.53846	0.23662
5.05495	0.709859
9.67033	1.2169
20	2.29859
29.8901	3.24507
44.8352	4.56338
59.7802	5.78028
80	6.92958
99.7802	7.80845
