Adsorption isotherm of Nitrogen on MIL-101(Li)
DOI: 10.1039/c4ta07197b
Article source: Figure 7
Adsorbate Nitrogen: InChIKey IJGRMHOSHXDMSA-UHFFFAOYSA-N
Kind: experiment
Temperature: 273 K
Tabular data in the source: 0
pressure (bar)	uptake (mg/g)
1.97802	0.304225
2.85714	0.371831
5.27473	0.574648
7.25275	0.709859
10.3297	0.878873
15.1648	1.28451
19.7802	1.58873
25.0549	1.99437
29.8901	2.29859
39.7802	2.94085
44.8352	3.27887
50.1099	3.6507
60	4.22535
70.1099	4.86761
79.7802	5.44225
90.1099	6.0169
100	6.55775
