Adsorption isotherm of Nitrogen on AC-MIL-101-A(Li)
DOI: 10.1039/c4ta07197b
Article source: Figure 6
Adsorbate Nitrogen: InChIKey IJGRMHOSHXDMSA-UHFFFAOYSA-N
Kind: experiment
Temperature: 77 K
Tabular data in the source: 0
pressure (bar)	uptake (mg/g)
2.00893	25.7793
3.125	30.5023
4.91071	37.8012
7.58929	45.5261
10.0446	51.103
14.9554	60.9672
20.0893	69.1114
25	76.8266
30.1339	82.8218
39.9554	96.1033
45.0893	100.379
49.7768	106.376
60.0446	114.928
69.8661	124.771
80.1339	130.744
89.9554	138.868
100	143.123
