Adsorption isotherm of Nitrogen on AC-MIL-101-A(Li)
DOI: 10.1039/c4ta07197b
Article source: Figure 6
Adsorbate Nitrogen: InChIKey IJGRMHOSHXDMSA-UHFFFAOYSA-N
Kind: experiment
Temperature: 77 K
Tabular data in the source: 0
pressure (bar)	uptake (mg/g)
4.91071	34.3628
7.36607	41.2291
10.2679	46.804
14.9554	55.8096
20.0893	63.0942
25	70.8095
29.9107	76.8055
40.1786	89.2256
45.0893	93.9323
50	99.0688
60.0446	108.481
69.8661	116.605
79.9107	123.439
89.7321	129.414
99.7768	135.818
