Adsorption isotherm of Nitrogen on MIL-101
DOI: 10.1039/c4ta07197b
Article source: Figure 4
Adsorbate Nitrogen: InChIKey IJGRMHOSHXDMSA-UHFFFAOYSA-N
Kind: experiment
Temperature: 77 K
Tabular data in the source: 0
pressure (bar)	uptake (mmol/g)
0.027719	24.611
0.059701	28.2421
0.081023	30.4611
0.095949	31.8732
0.121535	35.5043
0.136461	36.513
0.140725	36.7147
0.162047	37.9251
0.187633	38.732
0.198294	39.3372
0.204691	39.5389
0.245203	42.9683
0.253731	43.17
0.30064	43.3718
0.326226	43.3718
0.351812	43.7752
0.36887	43.7752
0.400853	43.9769
0.402985	43.9769
0.449893	44.1787
0.452026	44.1787
0.498934	44.1787
0.501066	44.1787
0.550107	44.3804
0.552239	44.3804
0.599147	44.5821
0.601279	44.5821
0.648188	44.5821
0.652452	44.5821
0.69936	44.7839
0.703625	44.7839
0.748401	44.9856
0.752665	44.9856
0.801706	44.9856
0.808102	45.1873
0.820896	45.1873
0.833689	45.1873
0.850746	45.1873
0.861407	45.389
0.8742	45.5908
0.89339	45.5908
0.899787	45.5908
0.925373	45.9942
0.927505	46.3977
0.948827	46.5994
0.972281	48.8184
0.991471	53.4582
