Adsorption isotherm of Nitrogen on AC-MIL-101-B(Li)
DOI: 10.1039/c4ta07197b
Article source: Figure 4
Adsorbate Nitrogen: InChIKey IJGRMHOSHXDMSA-UHFFFAOYSA-N
Kind: experiment
Temperature: 77 K
Tabular data in the source: 0
pressure (bar)	uptake (mmol/g)
0.004264	14.5245
0.008529	15.3314
0.010661	16.5418
0.023454	17.5504
0.029851	18.7608
0.034115	19.9712
0.049041	21.1816
0.053305	21.9885
0.059701	22.5937
0.070362	23.1988
0.074627	23.804
0.081023	24.611
0.089552	25.6196
0.098081	26.4265
0.102345	27.0317
0.115139	27.8386
0.117271	27.8386
0.132196	28.4438
0.144989	29.049
0.153518	29.2507
0.166311	29.8559
0.185501	30.6628
0.198294	31.6715
0.202559	32.6801
0.253731	33.6888
0.26226	33.8905
0.302772	33.8905
0.343284	34.4957
0.353945	34.2939
0.366738	34.4957
0.400853	34.8991
0.447761	35.1009
0.454158	34.8991
0.498934	35.1009
0.507463	35.1009
0.52452	35.5043
0.550107	35.5043
0.577825	35.5043
0.601279	35.7061
0.603412	35.7061
0.641791	35.7061
0.648188	35.9078
0.690832	36.1095
0.697228	36.3112
0.748401	36.3112
0.797441	36.9164
0.84435	37.5216
0.8742	38.1268
0.880597	38.3285
0.895522	38.732
0.944563	41.3545
0.948827	48.415
0.976546	48.6167
0.98081	53.0548
0.989339	53.0548
0.991471	54.0634
