Adsorption isotherm of Nitrogen on AC-MIL-101-B(Li)
DOI: 10.1039/c4ta07197b
Article source: Figure 7
Adsorbate Nitrogen: InChIKey IJGRMHOSHXDMSA-UHFFFAOYSA-N
Kind: experiment
Temperature: 273 K
Tabular data in the source: 0
pressure (bar)	uptake (mg/g)
1.97802	0.642254
3.07692	3.00845
4.83516	1.52113
7.47253	3.75211
9.89011	2.56901
14.9451	4.90141
19.7802	4.42817
24.8352	6.18592
29.8901	5.9831
38.4615	7.63944
44.8352	7.84225
49.8901	8.58592
59.7802	9.26197
69.6703	10.0056
80	10.5465
90.1099	11.0873
100	11.493
