Adsorption isotherm of Nitrogen on AC-MIL-101
DOI: 10.1039/c4ta07197b
Article source: Figure 6
Adsorbate Nitrogen: InChIKey IJGRMHOSHXDMSA-UHFFFAOYSA-N
Kind: experiment
Temperature: 77 K
Tabular data in the source: 0
pressure (bar)	uptake (mg/g)
7.58929	37.7897
10.0446	42.507
14.9554	50.6521
19.8661	58.3673
25	63.9327
29.9107	69.9288
39.9554	81.0604
44.8661	86.1969
50	90.4728
59.8214	97.7372
69.8661	104.141
79.9107	108.826
89.9554	113.08
100	116.476
