Adsorption isotherm of Nitrogen on AC-MIL-101-C(Li)
DOI: 10.1039/c4ta07197b
Article source: Figure 4
Adsorbate Nitrogen: InChIKey IJGRMHOSHXDMSA-UHFFFAOYSA-N
Kind: experiment
Temperature: 77 K
Tabular data in the source: 0
pressure (bar)	uptake (mmol/g)
0.006397	10.2882
0.008529	11.7003
0.012793	12.1037
0.021322	13.7176
0.023454	14.121
0.029851	14.7262
0.038379	15.5331
0.049041	16.3401
0.059701	17.147
0.070362	17.7522
0.078891	18.3573
0.089552	18.9625
0.098081	19.7695
0.104478	20.1729
0.117271	20.5764
0.123667	20.7781
0.132196	20.9798
0.144989	21.1816
0.153518	21.3833
0.168443	21.585
0.187633	22.3919
0.198294	22.9971
0.204691	23.804
0.253731	24.4092
0.260128	24.4092
0.302772	24.611
0.343284	24.8127
0.351812	24.8127
0.366738	24.8127
0.400853	24.8127
0.402985	24.8127
0.447761	25.0144
0.454158	25.0144
0.496802	25.2161
0.507463	25.2161
0.52452	25.2161
0.550107	25.4179
0.575693	25.4179
0.603412	25.6196
0.641791	25.8213
0.646055	25.6196
0.692964	25.8213
0.695096	25.8213
0.748401	26.0231
0.797441	26.2248
0.84435	26.6282
0.872068	27.0317
0.897655	27.2334
0.944563	28.8473
0.957356	33.8905
0.974414	35.7061
0.976546	33.2853
0.98081	36.3112
0.987207	35.5043
0.991471	36.513
