Adsorption isotherm of Nitrogen on AC-MIL-101
DOI: 10.1039/c4ta07197b
Article source: Figure 4
Adsorbate Nitrogen: InChIKey IJGRMHOSHXDMSA-UHFFFAOYSA-N
Kind: experiment
Temperature: 77 K
Tabular data in the source: 0
pressure (bar)	uptake (mmol/g)
0	15.7349
0.004264	18.1556
0.006397	19.366
0.008529	20.3746
0.017058	22.7954
0.021322	23.6023
0.025586	24.8127
0.029851	25.8213
0.034115	26.2248
0.042644	27.2334
0.044776	27.8386
0.049041	28.4438
0.057569	29.4524
0.061834	30.0576
0.066098	30.4611
0.072495	31.0663
0.078891	31.6715
0.081023	32.0749
0.089552	32.8818
0.095949	33.8905
0.100213	34.2939
0.104478	35.1009
0.110874	35.7061
0.117271	36.3112
0.123667	36.9164
0.134328	38.5303
0.138593	38.9337
0.153518	39.5389
0.159915	39.9424
0.162047	40.1441
0.185501	41.1527
0.196162	41.5562
0.204691	42.1614
0.251599	46.3977
0.264392	46.3977
0.298507	46.8012
0.302772	46.8012
0.315565	47.0029
0.332623	47.2046
0.351812	47.2046
0.375267	47.4063
0.400853	47.6081
0.402985	47.6081
0.426439	47.8098
0.447761	48.0115
0.452026	48.0115
0.473348	48.2133
0.501066	48.2133
0.52452	48.415
0.550107	48.6167
0.552239	48.6167
0.575693	48.8184
0.599147	48.8184
0.603412	49.0202
0.624733	49.0202
0.65032	49.2219
0.654584	49.4236
0.675906	49.4236
0.692964	49.6254
0.69936	49.4236
0.724947	49.8271
0.748401	50.0288
0.773987	50.0288
0.799574	50.4323
0.814499	50.8357
0.82516	50.634
0.850746	51.0375
0.863539	51.2392
0.876333	51.6427
0.878465	52.2478
0.895522	52.0461
0.925373	53.4582
0.93177	58.098
0.950959	56.0807
0.955224	65.1585
0.972281	68.7896
0.976546	64.9568
0.98081	69.3948
0.985075	68.3862
0.989339	69.7983
