Adsorption isotherm of Nitrogen on AC-MIL-101-C(Li)
DOI: 10.1039/c4ta07197b
Article source: Figure 6
Adsorbate Nitrogen: InChIKey IJGRMHOSHXDMSA-UHFFFAOYSA-N
Kind: experiment
Temperature: 77 K
Tabular data in the source: 0
pressure (bar)	uptake (mg/g)
2.00893	19.3323
4.91071	30.0649
7.58929	35.6407
10.0446	40.358
14.9554	47.2137
30.1339	60.902
39.9554	66.4472
44.8661	68.5751
50	71.5616
60.0446	75.3866
69.8661	79.6424
79.9107	82.6078
89.9554	84.7137
100	87.2493
