Adsorption isotherm of Nitrogen on MIL-101(Li)
DOI: 10.1039/c4ta07197b
Article source: Figure 6
Adsorbate Nitrogen: InChIKey IJGRMHOSHXDMSA-UHFFFAOYSA-N
Kind: experiment
Temperature: 77 K
Tabular data in the source: 0
pressure (bar)	uptake (mg/g)
2.00893	22.3409
3.125	25.7745
4.91071	31.7841
7.58929	36.0705
10.0446	40.7878
14.9554	46.7839
19.8661	51.9203
25.2232	56.6251
29.9107	59.1838
40.1786	63.4376
44.8661	65.9963
50	67.6934
60.0446	70.6588
70.0893	72.7647
79.9107	75.3012
89.9554	76.9773
100	79.0831
