Adsorption isotherm of Nitrogen on MIL-101
DOI: 10.1039/c4ta07197b
Article source: Figure 6
Adsorbate Nitrogen: InChIKey IJGRMHOSHXDMSA-UHFFFAOYSA-N
Kind: experiment
Temperature: 77 K
Tabular data in the source: 0
pressure (bar)	uptake (mg/g)
1.78571	19.3333
5.13393	29.2043
7.36607	33.9225
10.0446	37.7792
14.9554	43.7753
19.8661	48.482
25	51.8983
29.9107	54.8858
39.9554	60.43
44.8661	62.1281
50	63.8252
59.8214	66.7916
69.8661	68.4676
79.9107	70.1437
89.9554	70.9601
99.7768	72.2073
