Adsorption isotherm of Nitrogen on [Cu3(C9H3O6)2(H2O)3]2Na3PW12O40*nH2O
DOI: 10.1016/j.poly.2009.04.025
Adsorbate Nitrogen: InChIKey IJGRMHOSHXDMSA-UHFFFAOYSA-N
Temperature: 77 K
Tabular data in the source: 0
pressure (bar)	uptake (ml/g)
0.00837971	133.839
0.0258587	140.831
0.0739259	145.725
0.124178	148.871
0.207203	153.765
0.292413	156.562
0.373254	158.31
0.460649	160.407
0.539304	161.106
0.624514	160.757
0.70317	161.805
0.786195	161.456
0.856111	161.805
0.95006	161.805
0.991573	168.797
