Adsorption isotherm of Nitrogen on CuBTC
DOI: 10.1016/j.poly.2009.04.025
Adsorbate Nitrogen: InChIKey IJGRMHOSHXDMSA-UHFFFAOYSA-N
Temperature: 77 K
Tabular data in the source: 0
pressure (bar)	uptake (ml/g)
0.00837971	363.625
0.0105646	381.104
0.0302285	390.936
0.0586318	400.768
0.102329	408.415
0.128548	411.693
0.209388	417.155
0.292413	418.247
0.368884	423.709
0.451909	423.709
0.543674	426.987
0.624514	426.987
0.707539	429.171
0.786195	433.541
0.867035	435.726
0.956615	439.003
0.993758	527.491
