Adsorption isotherm of Carbon Dioxide on PEI-MonoSil
DOI: 10.1016/j.micromeso.2015.05.025
Article source: Figure 6a
Adsorbate Carbon Dioxide: InChIKey CURLTUGMZLYLDI-UHFFFAOYSA-N
Kind: experiment
Temperature: 298 K
Tabular data in the source: 0
pressure (bar)	uptake (mmol/g)
0.000518	0.843672
0.00072	0.955335
0.001895	1.0732
0.002136	1.20968
0.008792	1.22829
0.015447	1.2469
0.026517	1.26551
0.066307	1.29653
0.152521	1.36476
0.26954	1.37717
0.534463	1.38958
1.0135	1.39578
