Adsorption isotherm of Carbon Dioxide on PEI-MonoSil
DOI: 10.1016/j.micromeso.2015.05.025
Article source: Figure 6d
Adsorbate Carbon Dioxide: InChIKey CURLTUGMZLYLDI-UHFFFAOYSA-N
Kind: experiment
Temperature: 348 K
Tabular data in the source: 0
pressure (bar)	uptake (mmol/g)
0	0
0.002203	0.895062
0.008811	1.37037
0.015418	1.60494
0.028634	1.7963
0.070485	1.94444
0.134361	2.03086
0.273128	2.09259
0.552863	2.16049
1.01322	2.2037
