Adsorption isotherm of Nitrogen on PEI-MonoSil
DOI: 10.1016/j.micromeso.2015.05.025
Article source: Figure 5a
Adsorbate Nitrogen: InChIKey IJGRMHOSHXDMSA-UHFFFAOYSA-N
Kind: experiment
Temperature: 77 K
Tabular data in the source: 0
pressure (bar)	uptake (cm3(STP)/g)
0.011227	3.14358
0.030875	5.61113
0.067363	7.40079
0.081397	7.84712
0.102448	8.5166
0.120692	8.962
0.143146	9.40646
0.162794	9.85154
0.183844	10.521
0.204895	10.7411
0.254015	11.8538
0.30594	12.7411
0.355059	13.6291
0.406984	14.5165
0.426632	14.7368
0.435052	14.9597
0.444876	15.1822
0.456103	15.4045
0.45891	15.8533
0.505222	16.0677
0.509432	16.9657
0.557147	17.6292
0.558551	18.3031
0.592232	18.5203
0.610476	19.4152
0.642754	20.0822
0.660999	20.7523
0.697487	22.3172
0.71152	22.9883
0.750815	27.0245
0.76064	25.8987
0.811161	31.7302
0.813968	53.0779
0.833616	37.3432
0.836423	81.837
0.863087	48.1232
0.886944	65.4213
0.913609	105.415
0.915012	91.033
0.923432	106.087
0.950097	108.104
0.954307	106.53
0.978165	110.345
0.982375	111.692
1.00062	115.059
1.00483	116.631
1.00623	116.631
