Adsorption isotherm of Carbon Dioxide on PEI-MonoSil
DOI: 10.1016/j.micromeso.2015.05.025
Article source: Figure 7
Adsorbate Carbon Dioxide: InChIKey CURLTUGMZLYLDI-UHFFFAOYSA-N
Kind: experiment
Temperature: 333 K
Tabular data in the source: 0
pressure (bar)	uptake (mmol/g)
5.1e-05	0.097948
0.000218	0.56903
0.002632	1.39459
0.008497	1.60448
0.013317	1.66045
0.027415	1.73507
0.064163	1.81437
0.150159	1.87966
0.267547	1.93563
0.533396	2.01026
1.01307	2.02425
