Adsorption isotherm of Carbon Dioxide on PEI-MonoSil
DOI: 10.1016/j.micromeso.2015.05.025
Article source: Figure 7
Adsorbate Carbon Dioxide: InChIKey CURLTUGMZLYLDI-UHFFFAOYSA-N
Kind: experiment
Temperature: 298 K
Tabular data in the source: 0
pressure (bar)	uptake (mmol/g)
2.8e-05	0.844216
4.5e-05	0.951493
0.000186	1.0681
0.002506	1.20336
0.002849	1.21269
0.007456	1.22201
0.014859	1.24067
0.027332	1.26399
0.068184	1.29198
0.152079	1.36194
0.270894	1.37593
0.548593	1.38993
1.02532	1.39925
