Adsorption isotherm of Carbon Dioxide on PEI-MonoSil
DOI: 10.1016/j.micromeso.2015.05.025
Article source: Figure 7
Adsorbate Carbon Dioxide: InChIKey CURLTUGMZLYLDI-UHFFFAOYSA-N
Kind: experiment
Temperature: 348 K
Tabular data in the source: 0
pressure (bar)	uptake (mmol/g)
0.000128	0.093284
0.000281	0.186567
0.002753	0.895522
0.008217	1.37593
0.014425	1.61847
0.029244	1.80504
0.070704	1.94963
0.134348	2.03358
0.272157	2.09888
0.560248	2.16884
1.03067	2.21082
