Adsorption isotherm of Carbon Dioxide on PEI-MonoSil
DOI: 10.1016/j.micromeso.2015.05.025
Article source: Figure 6c
Adsorbate Carbon Dioxide: InChIKey CURLTUGMZLYLDI-UHFFFAOYSA-N
Kind: experiment
Temperature: 333 K
Tabular data in the source: 0
pressure (bar)	uptake (mmol/g)
0.001594	0.722222
0.001826	0.82716
0.002058	0.932099
0.002276	1.03086
0.002521	1.14198
0.002725	1.23457
0.002998	1.35802
0.005246	1.37654
0.009729	1.40741
0.016406	1.4321
0.027512	1.46296
0.069577	1.51852
0.133704	1.5679
0.270678	1.61728
0.555528	1.65432
1.01254	1.67901
