Adsorption isotherm of Nitrogen on PEI-MonoSil
DOI: 10.1016/j.micromeso.2015.05.025
Article source: Figure 3a
Adsorbate Nitrogen: InChIKey IJGRMHOSHXDMSA-UHFFFAOYSA-N
Kind: experiment
Temperature: 77 K
Tabular data in the source: 0
pressure (bar)	uptake (cm3(STP)/g)
0.009495	54.4465
0.033911	66.4247
0.063752	75.1361
0.080029	78.4029
0.100375	81.6697
0.122078	86.0254
0.141069	88.2033
0.160058	91.4701
0.181761	94.7368
0.202108	98.0036
0.250938	103.448
0.305196	109.982
0.354028	115.426
0.405572	121.96
0.427274	123.049
0.438125	124.138
0.44762	126.316
0.454403	128.494
0.457116	128.494
0.505947	136.116
0.507303	135.027
0.556134	144.828
0.558847	143.739
0.607678	154.628
0.613104	155.717
0.652441	167.695
0.657867	166.606
0.708054	188.385
0.752816	215.608
0.758242	204.719
0.807073	238.475
0.815212	316.878
0.832845	264.61
0.835558	403.993
0.859974	308.167
0.864043	493.285
0.88439	369.147
0.887102	500.907
0.910162	446.461
0.911518	504.174
0.919657	505.263
0.945429	507.441
0.950854	501.996
0.97527	508.53
0.980695	510.708
1.0024	515.064
1.00511	513.975
