Adsorption isotherm of Carbon Dioxide on PEI-MonoSil
DOI: 10.1016/j.micromeso.2015.05.025
Article source: Figure 7
Adsorbate Carbon Dioxide: InChIKey CURLTUGMZLYLDI-UHFFFAOYSA-N
Kind: experiment
Temperature: 313 K
Tabular data in the source: 0
pressure (bar)	uptake (mmol/g)
4.6e-05	0.73694
5.3e-05	0.839552
6.2e-05	0.942164
8.2e-05	1.04478
0.00014	1.14739
0.000297	1.24534
0.002206	1.3666
0.002762	1.38993
0.007465	1.41325
0.014408	1.44123
0.025668	1.47388
0.066133	1.52985
0.131823	1.57649
0.271325	1.62313
0.558444	1.66511
1.02719	1.68377
