Adsorption isotherm of N-Butane, Methane on Linde S-115 silicalite
DOI: 10.1021/ie00103a063
Article source: Table IV
Adsorbate N-Butane: InChIKey IJDNQMDRQITEOD-UHFFFAOYSA-N
Adsorbate Methane: InChIKey VNWKTOKETHGBQD-UHFFFAOYSA-N
Kind: experiment
Temperature: 300 K
Tabular data in the source: 0
pressure (bar)	N-Butane fraction	N-Butane uptake (mmol/g)	Methane fraction	Methane uptake (mmol/g)	total uptake (mmol/g)
3.4474	0.5	1.392	0.5	0.06	
3.4565	0.215304	1.392	0.784696	0.06	
3.4391	0.150504	1.375	0.849496	0.061	
3.446	0.111201	1.358	0.888799	0.087	
3.446	0.084504	1.343	0.915496	0.117	
3.4467	0.066005	1.33	0.933995	0.156	
3.4611	0.053393	1.318	0.946607	0.151	
3.4364	0.044611	1.307	0.955389	0.178	
3.4846	0.037192	1.298	0.962808	0.234	
3.4473	0.032692	1.289	0.967308	0.255	
