Adsorption isotherm of Ethane, Methane on Linde S-115 silicalite
DOI: 10.1021/ie00103a063
Article source: Table IV
Adsorbate Ethane: InChIKey OTMSDBZUPAUEDD-UHFFFAOYSA-N
Adsorbate Methane: InChIKey VNWKTOKETHGBQD-UHFFFAOYSA-N
Kind: experiment
Temperature: 300 K
Tabular data in the source: 0
pressure (bar)	Ethane fraction	Ethane uptake (mmol/g)	Methane fraction	Methane uptake (mmol/g)	total uptake (mmol/g)
3.446	0.697795	1.802	0.302205	0.038	
3.4515	0.515109	1.723	0.484891	0.152	
3.4528	0.397996	1.649	0.602004	0.168	
3.4621	0.397995	1.649	0.602005	0.168	
3.7691	0.302592	1.571	0.697408	0.257	
3.4485	0.26571	1.525	0.73429	0.311	
3.4336	0.227808	1.457	0.772192	0.357	
3.4515	0.197798	1.358	0.802202	0.46	
3.4515	0.175112	1.358	0.824888	0.46	
3.446	0.1574	1.313	0.8426	0.477	
3.4473	0.099991	0.025	0.900009	1.746	
