Adsorption isotherm of Ethane, Methane on Linde S-115 silicalite
DOI: 10.1021/ie00103a063
Article source: Table IV
Adsorbate Ethane: InChIKey OTMSDBZUPAUEDD-UHFFFAOYSA-N
Adsorbate Methane: InChIKey VNWKTOKETHGBQD-UHFFFAOYSA-N
Kind: experiment
Temperature: 300 K
Tabular data in the source: 0
pressure (bar)	Ethane fraction	Ethane uptake (mmol/g)	Methane fraction	Methane uptake (mmol/g)	total uptake (mmol/g)
6.5707	0.878704	1.883	0.121296	0.011	
6.5499	0.809005	1.815	0.190995	0.022	
6.543	0.697203	1.762	0.302797	0.039	
6.5755	0.534606	1.682	0.465394	0.079	
6.55	0.326702	1.555	0.673298	0.189	
6.5638	0.134998	1.284	0.865002	0.447	
6.55	0.037298	0.685	0.962702	0.923	
