Adsorption isotherm of Ethane on Linde S-115 silicalite
DOI: 10.1021/ie00103a063
Article source: Table I
Adsorbate Ethane: InChIKey OTMSDBZUPAUEDD-UHFFFAOYSA-N
Kind: experiment
Temperature: 300 K
Tabular data in the source: 0
pressure (bar)	uptake (mmol/g)
0.0085	0.179
0.0277	0.473
0.0433	0.626
0.0811	0.891
0.1324	1.099
0.3817	1.442
0.7311	1.594
1.4045	1.733
2.0473	1.792
2.8999	1.838
