Adsorption isotherm of N-propane on Linde S-115 silicalite
DOI: 10.1021/ie00103a063
Article source: Table I
Adsorbate N-propane: InChIKey ATUOYWHBWRKTHZ-UHFFFAOYSA-N
Kind: experiment
Temperature: 300 K
Tabular data in the source: 0
pressure (bar)	uptake (mmol/g)
0.0019	0.252
0.0039	0.477
0.0058	0.603
0.0087	0.778
0.0152	0.974
0.0287	1.143
0.0677	1.301
0.1666	1.412
0.3205	1.481
0.7304	1.522
1.307	1.556
2.0086	1.57
2.4897	1.569
3.1164	1.577
3.4236	1.59
