Adsorption isotherm of N-propane, Ethane on Linde S-115 silicalite
DOI: 10.1021/ie00103a063
Article source: Table IV
Adsorbate N-propane: InChIKey ATUOYWHBWRKTHZ-UHFFFAOYSA-N
Adsorbate Ethane: InChIKey OTMSDBZUPAUEDD-UHFFFAOYSA-N
Kind: experiment
Temperature: 300 K
Tabular data in the source: 0
pressure (bar)	N-propane fraction	N-propane uptake (mmol/g)	Ethane fraction	Ethane uptake (mmol/g)	total uptake (mmol/g)
3.437	0.710911	1.48	0.289089	0.09	
3.4363	0.546402	1.38	0.453598	0.24	
3.446	0.435694	1.29	0.564306	0.34	
3.4474	0.358995	1.2	0.641005	0.43	
3.444	0.303107	1.12	0.696893	0.51	
3.4439	0.260809	1.05	0.739191	0.56	
