Adsorption isotherm of Methane on Linde S-115 silicalite
DOI: 10.1021/ie00103a063
Article source: Table I
Adsorbate Methane: InChIKey VNWKTOKETHGBQD-UHFFFAOYSA-N
Kind: experiment
Temperature: 300 K
Tabular data in the source: 0
pressure (bar)	uptake (mmol/g)
0.0803	0.068
0.1997	0.168
0.3897	0.307
0.7206	0.502
1.0408	0.649
1.4894	0.934
1.9457	0.956
2.7215	1.133
4.0196	1.352
5.5447	1.509
6.2452	1.528
7.8145	1.606
9.3079	1.732
11.066	1.718
12.1237	1.808
14.3686	1.819
16.6577	1.903
