Adsorption isotherm of N-propane, Methane on Linde S-115 silicalite
DOI: 10.1021/ie00103a063
Article source: Table IV
Adsorbate N-propane: InChIKey ATUOYWHBWRKTHZ-UHFFFAOYSA-N
Adsorbate Methane: InChIKey VNWKTOKETHGBQD-UHFFFAOYSA-N
Kind: experiment
Temperature: 300 K
Tabular data in the source: 0
pressure (bar)	N-propane fraction	N-propane uptake (mmol/g)	Methane fraction	Methane uptake (mmol/g)	total uptake (mmol/g)
3.475	0.623597	1.746	0.376403	0.025	
3.4363	0.417106	1.719	0.582894	0.087	
3.5081	0.283829	1.686	0.716171	0.096	
3.4419	0.213109	1.652	0.786891	0.126	
3.4528	0.165344	1.62	0.834656	0.159	
3.4419	0.132107	1.592	0.867893	0.209	
3.4873	0.107848	1.566	0.892152	0.223	
3.4625	0.092303	1.543	0.907697	0.284	
3.4459	0.080589	1.522	0.919411	0.299	
3.4446	0.0713	1.503	0.9287	0.311	
3.4571	0.063811	1.485	0.936189	0.356	
