Adsorption isotherm of N-Butane on Linde S-115 silicalite
DOI: 10.1021/ie00103a063
Article source: Table I
Adsorbate N-Butane: InChIKey IJDNQMDRQITEOD-UHFFFAOYSA-N
Kind: experiment
Temperature: 300 K
Tabular data in the source: 0
pressure (bar)	uptake (mmol/g)
0.0005	0.356
0.001	0.656
0.0023	0.878
0.0042	1.016
0.0111	1.142
0.0545	1.251
0.1784	1.301
0.3948	1.339
0.6957	1.362
0.9973	1.378
1.1498	1.386
