Adsorption isotherm of Ethanol on [Zn3(TCPB)2*2H2O]*2H2O*4DMF
DOI: 10.1002/asia.201200601
Adsorbate Ethanol: InChIKey LFQSCWFLJHTTHZ-UHFFFAOYSA-N
Temperature: 298 K
Tabular data in the source: 0
pressure (bar)	uptake (cm3(STP)/g)
0.00803333	31.1872
0.0379	47.7504
0.1038	54.0288
0.160033	56.3392
0.252333	60.544
0.359867	62.6432
0.5145	65.952
0.660267	69.5936
0.817267	73.6256
0.962767	75.8336
