Adsorption isotherm of Hydrogen on [Zn3(TCPB)2*2H2O]*2H2O*4DMF
DOI: 10.1002/asia.201200601
Adsorbate Hydrogen: InChIKey UFHFLCQGNIYNRP-UHFFFAOYSA-N
Temperature: 77 K
Tabular data in the source: 0
pressure (bar)	uptake (cm3(STP)/g)
0.0179162	19.5823
0.0432679	26.7616
0.0845847	37.0971
0.172953	49.7976
0.339459	64.0723
0.467299	71.57
0.583734	76.8134
0.706854	82.0775
1.00434	92.765
