Adsorption isotherm of Methane on [Zn3(TCPB)2*2H2O]*2H2O*4DMF
DOI: 10.1002/asia.201200601
Adsorbate Methane: InChIKey VNWKTOKETHGBQD-UHFFFAOYSA-N
Temperature: 273 K
Tabular data in the source: 0
pressure (bar)	uptake (cm3(STP)/g)
0.0155072	-0.193553
0.0825297	1.22979
0.124785	1.36296
0.211763	2.60677
0.294111	3.10871
0.412345	4.93588
0.543863	6.56248
0.668648	7.92544
0.786701	9.02475
0.922666	10.6654
0.996179	11.3819
