Adsorption isotherm of Carbon Dioxide on [Zn3(TCPB)2*2H2O]*2H2O*4DMF
DOI: 10.1002/asia.201200601
Adsorbate Carbon Dioxide: InChIKey CURLTUGMZLYLDI-UHFFFAOYSA-N
Temperature: 273 K
Tabular data in the source: 0
pressure (bar)	uptake (cm3(STP)/g)
0.0192475	5.87884
0.0481187	14.6971
0.0835406	23.0512
0.131821	29.5063
0.216231	38.2572
0.3043	43.8681
0.423748	50.5476
0.54728	55.7854
0.675017	60.0667
0.831605	64.1966
1.00839	69.1174
