Adsorption isotherm of Carbon Dioxide on [Zn3(TCPB)2*2H2O]*2H2O*4DMF
DOI: 10.1002/asia.201200601
Adsorbate Carbon Dioxide: InChIKey CURLTUGMZLYLDI-UHFFFAOYSA-N
Temperature: 195 K
Tabular data in the source: 0
pressure (bar)	uptake (cm3(STP)/g)
0.0102567	48.8484
0.0240201	89.7196
0.038601	99.972
0.0982163	114.358
0.228758	125.859
0.389754	131.24
0.554995	134.86
0.758375	140.817
1.01045	144.263
