Adsorption isotherm of 1-Propanol on [Zn3(TCPB)2*2H2O]*2H2O*4DMF
DOI: 10.1002/asia.201200601
Adsorbate 1-Propanol: InChIKey BDERNNFJNOPAEC-UHFFFAOYSA-N
Temperature: 298 K
Tabular data in the source: 0
pressure (bar)	uptake (cm3(STP)/g)
-0.00203333	1.0688
0.00833333	20.8
0.0695667	25.9904
0.199633	29.2288
0.305	31.68
0.4055	31.968
0.504033	33.6832
0.653867	35.1872
0.8037	36.6912
0.9649	39.3024
