Adsorption isotherm of Nitrogen on [Zn3(TCPB)2*2H2O]*2H2O*4DMF
DOI: 10.1002/asia.201200601
Adsorbate Nitrogen: InChIKey IJGRMHOSHXDMSA-UHFFFAOYSA-N
Temperature: 77 K
Tabular data in the source: 0
pressure (bar)	uptake (cm3(STP)/g)
0.00291353	5.77828
0.0501233	9.47523
0.101314	9.19047
0.201627	9.94588
0.301939	10.7013
0.469197	12.5522
0.574071	14.2094
0.774696	15.7202
0.91299	17.4812
0.971128	19.4369
0.996269	24.8405
