Adsorption isotherm of Methanol on [Zn3(TCPB)2*2H2O]*2H2O*4DMF
DOI: 10.1002/asia.201200601
Adsorbate Methanol: InChIKey OKKJLVBELUTLKV-UHFFFAOYSA-N
Temperature: 298 K
Tabular data in the source: 0
pressure (bar)	uptake (cm3(STP)/g)
-0.00116667	5.728
0.0157333	36.5824
0.0410667	52.7744
0.0922	63.6672
0.1926	75.4176
0.3556	87.7056
0.515833	97.12
0.716467	107.725
0.9753	119.213
