Adsorption isotherm of Water on [Zn3(TCPB)2*2H2O]*2H2O*4DMF
DOI: 10.1002/asia.201200601
Adsorbate Water: InChIKey XLYOFNOQVPJJNP-UHFFFAOYSA-N
Temperature: 298 K
Tabular data in the source: 0
pressure (bar)	uptake (cm3(STP)/g)
0.00230689	0.455539
0.0790963	6.54501
0.108851	11.1243
0.135644	49.6866
0.163013	53.3629
0.190696	58.8293
0.299625	70.4012
0.354364	77.7536
0.431466	85.6334
0.561976	93.2569
0.715477	104.988
0.813028	115.178
0.917187	124.943
0.974938	136.779
