Adsorption isotherm of Nitrogen on [Zn2(bcta)(dipy)(mu2-OH)]*2DMF*H2O
DOI: 10.1039/C3dt50997d
Adsorbate Nitrogen: InChIKey IJGRMHOSHXDMSA-UHFFFAOYSA-N
Temperature: 295 K
Tabular data in the source: 0
pressure (bar)	uptake (cm3(STP)/g)
0.031336	0.423297
0.0671669	0.564143
0.125392	0.704988
0.229899	0.704988
0.33142	0.77541
0.429956	0.986678
0.529984	1.0571
0.630012	1.19795
0.731533	1.33879
0.830068	1.47964
0.880829	1.62048
0.928604	1.6909
0.980857	1.83175
