Adsorption isotherm of Carbon Dioxide on [Zn2(bcta)(dipy)(mu2-OH)]*2DMF*H2O
DOI: 10.1039/C3dt50997d
Adsorbate Carbon Dioxide: InChIKey CURLTUGMZLYLDI-UHFFFAOYSA-N
Temperature: 195 K
Tabular data in the source: 0
pressure (bar)	uptake (cm3(STP)/g)
0.00372489	5.76188
0.00515504	12.2118
0.00801532	20.3922
0.00801532	27.3141
0.0165962	38.1689
0.0595005	53.1139
0.108125	59.4065
0.203945	66.9577
0.322647	73.7223
0.422757	78.4417
0.520007	83.0039
0.625837	87.4087
0.720227	91.1843
0.824627	95.2745
0.873252	96.8477
0.921877	99.2074
0.970502	100.466
