Adsorption isotherm of Carbon Dioxide on [Zn2(bcta)(dipy)(mu2-OH)]*2DMF*H2O
DOI: 10.1039/C3dt50997d
Adsorbate Carbon Dioxide: InChIKey CURLTUGMZLYLDI-UHFFFAOYSA-N
Temperature: 273 K
Tabular data in the source: 0
pressure (bar)	uptake (cm3(STP)/g)
0.0119275	1.47964
0.0164064	5.4233
0.031336	8.2402
0.0582092	11.5501
0.0955331	14.9303
0.144801	18.5219
0.238857	23.381
0.307533	26.1979
0.374716	28.9444
0.443392	31.6205
0.515054	34.0148
0.585223	36.4796
0.650913	38.874
0.722575	41.2684
0.786773	43.3106
0.858435	45.2825
0.922632	47.3247
0.991308	49.367
