Adsorption isotherm of Nitrogen on [Zn2(bcta)(dipy)(mu2-OH)]*2DMF*H2O
DOI: 10.1039/C3dt50997d
Adsorbate Nitrogen: InChIKey IJGRMHOSHXDMSA-UHFFFAOYSA-N
Temperature: 77 K
Tabular data in the source: 0
pressure (bar)	uptake (cm3(STP)/g)
0.00658518	7.64967
0.0137359	15.6728
0.0380483	16.9313
0.0623608	18.1898
0.118136	20.3922
0.198224	22.9093
0.245419	24.0105
0.295474	25.5837
0.397014	27.7861
0.497124	30.1458
0.600095	32.6629
0.695914	34.8653
0.797454	37.3823
0.870392	39.2701
0.920447	40.686
0.95048	41.4725
0.989093	43.675
