Adsorption isotherm of Carbon Dioxide on [Zn2(bcta)(dipy)(mu2-OH)]*2DMF*H2O
DOI: 10.1039/C3dt50997d
Adsorbate Carbon Dioxide: InChIKey CURLTUGMZLYLDI-UHFFFAOYSA-N
Temperature: 295 K
Tabular data in the source: 0
pressure (bar)	uptake (cm3(STP)/g)
0.0119275	0.704988
0.0402937	3.31062
0.0850824	6.26837
0.138829	9.71907
0.195561	12.6064
0.261251	15.3529
0.325449	18.0289
0.389646	20.6346
0.455336	23.0994
0.522519	25.5641
0.571787	27.2543
0.713618	31.0571
0.827082	33.6627
0.943533	36.1979
0.99728	37.3951
