Adsorption isotherm of Nitrogen on MCM-41
DOI: 10.1103/PhysRevE.62.4611
Adsorbate Nitrogen: InChIKey IJGRMHOSHXDMSA-UHFFFAOYSA-N
Temperature: 77 K
Tabular data in the source: 0
pressure (bar)	uptake (mmol/m2)
0.00698935	0.000299625
0.00931914	0.00322097
0.0116489	0.00756554
0.0139787	0.00838951
0.0302872	0.00913858
0.0419361	0.0100375
0.0559148	0.0106367
0.0698935	0.011236
0.0838722	0.0118352
0.11183	0.0125843
0.130468	0.0131835
0.149106	0.0139326
0.165415	0.0144569
0.181723	0.015206
0.195702	0.0158801
0.200361	0.0161798
0.207351	0.0167041
0.21201	0.0170787
0.21667	0.0175281
0.223659	0.0181273
0.235308	0.0193258
0.242298	0.0200749
0.249287	0.0205243
0.260936	0.0214981
0.279574	0.0218727
0.298212	0.0218727
0.330829	0.0220225
0.361117	0.0222472
0.384414	0.0223221
0.412372	0.022397
0.43567	0.0224719
0.484595	0.0226217
0.533521	0.0229213
0.580116	0.0229213
0.631372	0.0230712
0.680297	0.023221
0.729222	0.0231461
0.775818	0.0233708
0.796786	0.0233708
0.827073	0.0234457
0.845712	0.0234457
0.871339	0.0235206
0.894637	0.0235955
0.917935	0.0238202
0.943563	0.02397
0.959871	0.0244195
0.96686	0.024794
