Adsorption isotherm of Nitrogen on MCM-41
DOI: 10.1103/PhysRevE.62.4611
Adsorbate Nitrogen: InChIKey IJGRMHOSHXDMSA-UHFFFAOYSA-N
Temperature: 77 K
Tabular data in the source: 0
pressure (bar)	uptake (mmol/m2)
0.00687396	0.00526316
0.00916528	0.0077193
0.0137479	0.00865497
0.0183306	0.00912281
0.0343698	0.00994152
0.0458264	0.0105263
0.0687396	0.011462
0.0916528	0.0121637
0.116857	0.0129825
0.144353	0.0136842
0.194762	0.0148538
0.24288	0.0160234
0.290998	0.017076
0.327659	0.0180117
0.350572	0.0187135
0.371194	0.0196491
0.380359	0.0207018
0.391816	0.0226901
0.400981	0.0266667
0.407855	0.0298246
0.41702	0.0309942
0.428477	0.0311111
0.446808	0.0312281
0.460555	0.031345
0.467429	0.0315789
0.478886	0.0315789
0.501799	0.0316959
0.527004	0.0321637
0.57283	0.0323977
0.623239	0.0326316
0.671357	0.0328655
0.719475	0.0332164
0.765301	0.0335673
0.790506	0.0336842
0.813419	0.0338012
0.840915	0.034269
0.866119	0.0346199
0.895906	0.0347368
0.914237	0.0357895
0.932568	0.0378947
