Adsorption isotherm of Nitrogen on MCM-41
DOI: 10.1103/PhysRevE.62.4611
Adsorbate Nitrogen: InChIKey IJGRMHOSHXDMSA-UHFFFAOYSA-N
Temperature: 77 K
Tabular data in the source: 0
pressure (bar)	uptake (mmol/m2)
0.00232978	0.00524345
0.00465957	0.00674157
0.0139787	0.00741573
0.0256276	0.00786517
0.0442659	0.00831461
0.0629042	0.00861423
0.086202	0.00883895
0.10717	0.00906367
0.128138	0.0094382
0.146776	0.00981273
0.165415	0.0101873
0.181723	0.0106367
0.195702	0.0113109
0.205021	0.011985
0.21667	0.0125843
0.221329	0.0129588
0.230649	0.013633
0.232978	0.014382
0.235308	0.0158801
0.242298	0.0219476
0.263266	0.0220225
0.302872	0.0219476
0.32151	0.0221723
0.337819	0.0221723
0.356457	0.0221723
0.442659	0.0225468
0.461297	0.0226966
0.491584	0.0226217
0.512553	0.0228464
0.53818	0.0228464
0.559148	0.0229213
0.582446	0.0229213
0.605744	0.0229963
