Adsorption isotherm of Nitrogen on MCM-41
DOI: 10.1103/PhysRevE.62.4611
Adsorbate Nitrogen: InChIKey IJGRMHOSHXDMSA-UHFFFAOYSA-N
Temperature: 77 K
Tabular data in the source: 0
pressure (bar)	uptake (mmol/m2)
0.00687396	0.00654971
0.0137479	0.00842105
0.0274958	0.00900585
0.0458264	0.00912281
0.0664483	0.00947368
0.0893615	0.0097076
0.107692	0.00994152
0.130605	0.0101754
0.151227	0.0104094
0.171849	0.0108772
0.194762	0.0112281
0.215384	0.0116959
0.233715	0.0122807
0.249754	0.0130994
0.265793	0.0139181
0.284124	0.0146199
0.300163	0.0153216
0.318494	0.0160234
0.339115	0.0164912
0.359737	0.0169591
0.380359	0.0174269
0.389525	0.0295906
0.391816	0.0315789
0.41702	0.0318129
0.533878	0.0319298
0.556791	0.0320468
0.581995	0.0322807
0.604909	0.0321637
0.630113	0.0325146
0.648444	0.0321637
0.671357	0.0321637
0.69427	0.0322807
