Adsorption isotherm of Nitrogen on Zn2(C34H18O8)
DOI: 10.1039/C1gc15726d
Adsorbate Nitrogen: InChIKey IJGRMHOSHXDMSA-UHFFFAOYSA-N
Temperature: 77 K
Tabular data in the source: 0
pressure (bar)	uptake (wt%)
0	2.07254
0.0070656	5.05639
0.0105984	5.96801
0.0211968	6.87902
0.0459264	8.78365
0.0989184	10.3543
0.144845	11.511
0.190771	12.2532
0.303821	12.8238
0.399206	13.1473
0.494592	13.4707
0.597043	13.7107
0.692429	13.9513
0.784282	14.3579
0.918528	16.0045
