Adsorption isotherm of Hydrogen on Zn2(C34H18O8)
DOI: 10.1039/C1gc15726d
Adsorbate Hydrogen: InChIKey UFHFLCQGNIYNRP-UHFFFAOYSA-N
Temperature: 87 K
Tabular data in the source: 0
pressure (bar)	uptake (wt%)
0.0611621	0.362471
0.152905	0.512586
0.214067	0.604119
0.397554	0.702975
0.550459	0.776201
0.611621	0.812815
0.764526	0.860412
0.948012	0.908009
1.16208	0.940961
1.49847	0.99222
1.95719	1.03616
2.50765	1.08009
3.0581	1.10572
3.48624	1.13135
4.00612	1.15332
4.98471	1.18261
5.9633	1.2119
7.00306	1.23753
8.01223	1.2595
8.96024	1.27048
10.0306	1.28513
11.5291	1.30343
13.0275	1.32174
14.4343	1.33638
15.9633	1.35469
17.5229	1.36568
19.052	1.36934
20	1.36934
