Adsorption isotherm of Hydrogen on Zn2(C34H18O8)
DOI: 10.1039/C1gc15726d
Adsorbate Hydrogen: InChIKey UFHFLCQGNIYNRP-UHFFFAOYSA-N
Temperature: 77 K
Tabular data in the source: 0
pressure (bar)	uptake (wt%)
0.138889	0.138889
0.208333	0.807091
0.277778	0.891326
0.555556	1.05283
0.694444	1.102
0.902778	1.17225
1.18056	1.22147
1.52778	1.25668
2.01389	1.29895
2.43056	1.32717
2.98611	1.36245
3.47222	1.38367
3.95833	1.4049
5.06944	1.43336
6.04167	1.46879
7.01389	1.4972
8.05556	1.5116
8.95833	1.53297
10	1.54737
11.5278	1.57597
12.9861	1.5835
14.5139	1.61211
15.9028	1.61962
17.4306	1.63419
18.9583	1.64876
20	1.64912
