Adsorption isotherm of Carbon Dioxide on NH2-MIL-53
DOI: 10.1021/cg300552w
Adsorbate Carbon Dioxide: InChIKey CURLTUGMZLYLDI-UHFFFAOYSA-N
Temperature: 298 K
Tabular data in the source: 0
pressure (bar)	uptake (mmol/g)
0.275373	0.627907
0.864799	2.12292
2.92733	2.96013
6.02488	3.36379
8.01098	3.51329
9.48085	3.58804
11.5865	3.66279
13.6921	3.73754
15.7184	3.78239
17.9436	3.76744
20.8045	3.78239
23.5461	3.79734
29.2681	3.76744
