Adsorption isotherm of Carbon Dioxide on NH2-MIL-53
DOI: 10.1021/cg300552w
Adsorbate Carbon Dioxide: InChIKey CURLTUGMZLYLDI-UHFFFAOYSA-N
Temperature: 298 K
Tabular data in the source: 0
pressure (bar)	uptake (mmol/g)
0.277354	0.179402
0.709753	1.24086
1.10493	1.73422
1.97527	2.60133
2.92541	3.39369
4.66953	4.3505
7.01041	5.14286
9.63035	5.72591
11.0202	5.92027
13.0458	6.12957
14.9522	6.32392
17.2164	6.48837
19.2424	6.59302
