Adsorption isotherm of Carbon Dioxide on NH2-MIL-53
DOI: 10.1021/cg300552w
Adsorbate Carbon Dioxide: InChIKey CURLTUGMZLYLDI-UHFFFAOYSA-N
Temperature: 298 K
Tabular data in the source: 0
pressure (bar)	uptake (mmol/g)
0.15762	0.299003
0.272601	1.25581
0.786649	1.82392
3.05036	2.09302
4.55964	2.24252
7.4599	2.33223
10.0822	2.39203
12.1085	2.42193
14.3731	2.49668
16.4387	2.63123
18.3039	3.16944
20.0072	4.36545
22.5045	5.74086
25.0427	6.81728
27.7809	7.62458
30.441	8.11794
