Adsorption isotherm of Zinc, Water on Treated Laterite
DOI: 10.1016/j.jece.2017.06.029
Article source: Figure 4
Adsorbate Zinc: InChIKey HCHKCACWOHOZIP-UHFFFAOYSA-N
Adsorbate Water: InChIKey XLYOFNOQVPJJNP-UHFFFAOYSA-N
Kind: experiment
Temperature: 318 K
Tabular data in the source: 0
pressure (bar)	Zinc fraction	Zinc uptake (mg/g)	Water fraction	Water uptake (mg/g)	total uptake (mg/g)
1.01325	1.797	1.48124			
1.01325	7.298	1.93448			
1.01325	14.765	2.16995			
1.01325	23.144	2.32624			
1.01325	30.126	2.45018			
1.01325	38.089	2.53271			
1.01325	46.469	2.66381			
1.01325	55.266	2.83988			
