Adsorption isotherm of Cadmium, Zinc, Nickel, Copper, Water on Treated Laterite
DOI: 10.1016/j.jece.2017.06.029
Article source: Figure 6
Adsorbate Cadmium: InChIKey BDOSMKKIYDKNTQ-UHFFFAOYSA-N
Adsorbate Zinc: InChIKey HCHKCACWOHOZIP-UHFFFAOYSA-N
Adsorbate Nickel: InChIKey PXHVJJICTQNCMI-UHFFFAOYSA-N
Adsorbate Copper: InChIKey RYGMFSIKBFXOCR-UHFFFAOYSA-N
Adsorbate Water: InChIKey XLYOFNOQVPJJNP-UHFFFAOYSA-N
Kind: experiment
Temperature: 298 K
Tabular data in the source: 0
pressure (bar)	Cadmium fraction	Cadmium uptake (mg/g)	Zinc fraction	Zinc uptake (mg/g)	Nickel fraction	Nickel uptake (mg/g)	Copper fraction	Copper uptake (mg/g)	Water fraction	Water uptake (mg/g)	total uptake (mg/g)
1.01325	0.092	0.0082									
1.01325	9.968	1.8006									
1.01325	26.637	2.3991									
1.01325	43.616	2.9426									
