Adsorption isotherm of Cadmium, Water on Treated Laterite
DOI: 10.1016/j.jece.2017.06.029
Article source: Figure 4
Adsorbate Cadmium: InChIKey BDOSMKKIYDKNTQ-UHFFFAOYSA-N
Adsorbate Water: InChIKey XLYOFNOQVPJJNP-UHFFFAOYSA-N
Kind: experiment
Temperature: 318 K
Tabular data in the source: 0
pressure (bar)	Cadmium fraction	Cadmium uptake (mg/g)	Water fraction	Water uptake (mg/g)	total uptake (mg/g)
1.01325	1.588	1.9403			
1.01325	7.593	2.631			
1.01325	16.771	3.0487			
1.01325	24.234	3.2919			
1.01325	34.614	3.6224			
1.01325	42.935	3.767			
1.01325	50.226	3.8394			
1.01325	65.667	4.2044			
1.01325	87.799	5.0172			
