Adsorption isotherm of Nickel, Water on Treated Laterite
DOI: 10.1016/j.jece.2017.06.029
Article source: Figure 4
Adsorbate Nickel: InChIKey PXHVJJICTQNCMI-UHFFFAOYSA-N
Adsorbate Water: InChIKey XLYOFNOQVPJJNP-UHFFFAOYSA-N
Kind: experiment
Temperature: 298 K
Tabular data in the source: 0
pressure (bar)	Nickel fraction	Nickel uptake (mg/g)	Water fraction	Water uptake (mg/g)	total uptake (mg/g)
1.01325	3.954	1.00386			
1.01325	11.948	1.14044			
1.01325	19.457	1.25091			
1.01325	27.643	1.41361			
1.01325	38.853	1.61848			
1.01325	49.593	1.67467			
1.01325	56.038	1.69874			
1.01325	64.23	1.81522			
1.01325	88.43	2.05618			
