Adsorption isotherm of Copper, Water on Treated Laterite
DOI: 10.1016/j.jece.2017.06.029
Article source: Figure 4
Adsorbate Copper: InChIKey RYGMFSIKBFXOCR-UHFFFAOYSA-N
Adsorbate Water: InChIKey XLYOFNOQVPJJNP-UHFFFAOYSA-N
Kind: experiment
Temperature: 298 K
Tabular data in the source: 0
pressure (bar)	Copper fraction	Copper uptake (mg/g)	Water fraction	Water uptake (mg/g)	total uptake (mg/g)
1.01325	1.933	1.55101			
1.01325	8.452	2.11481			
1.01325	18.663	2.32051			
1.01325	28.243	2.45367			
1.01325	38.14	2.54004			
1.01325	50.248	2.61465			
1.01325	59.194	2.86015			
1.01325	69.829	2.9114			
1.01325	91.834	3.08641			
