Adsorption isotherm of Cadmium, Zinc, Nickel, Copper, Water on Treated Laterite
DOI: 10.1016/j.jece.2017.06.029
Article source: Figure 6
Adsorbate Cadmium: InChIKey BDOSMKKIYDKNTQ-UHFFFAOYSA-N
Adsorbate Zinc: InChIKey HCHKCACWOHOZIP-UHFFFAOYSA-N
Adsorbate Nickel: InChIKey PXHVJJICTQNCMI-UHFFFAOYSA-N
Adsorbate Copper: InChIKey RYGMFSIKBFXOCR-UHFFFAOYSA-N
Adsorbate Water: InChIKey XLYOFNOQVPJJNP-UHFFFAOYSA-N
Kind: experiment
Temperature: 298 K
Tabular data in the source: 0
pressure (bar)	Cadmium fraction	Cadmium uptake (mg/g)	Zinc fraction	Zinc uptake (mg/g)	Nickel fraction	Nickel uptake (mg/g)	Copper fraction	Copper uptake (mg/g)	Water fraction	Water uptake (mg/g)	total uptake (mg/g)
1.01325			0.096	0.00654							
1.01325			12.638	1.31421							
1.01325			32.025	1.43794							
1.01325			46.146	2.52334							
