Adsorption isotherm of Cadmium, Water on Treated Laterite
DOI: 10.1016/j.jece.2017.06.029
Article source: Figure 4
Adsorbate Cadmium: InChIKey BDOSMKKIYDKNTQ-UHFFFAOYSA-N
Adsorbate Water: InChIKey XLYOFNOQVPJJNP-UHFFFAOYSA-N
Kind: experiment
Temperature: 308 K
Tabular data in the source: 0
pressure (bar)	Cadmium fraction	Cadmium uptake (mg/g)	Water fraction	Water uptake (mg/g)	total uptake (mg/g)
1.01325	1.502	1.7621			
1.01325	7.936	2.5096			
1.01325	17.457	2.7263			
1.01325	26.293	3.072			
1.01325	35.043	3.1293			
1.01325	45.337	3.274			
1.01325	55.116	3.4073			
1.01325	65.838	3.643			
1.01325	86.169	4.2889			
