Adsorption isotherm of Copper, Water on Treated Laterite
DOI: 10.1016/j.jece.2017.06.029
Article source: Figure 4
Adsorbate Copper: InChIKey RYGMFSIKBFXOCR-UHFFFAOYSA-N
Adsorbate Water: InChIKey XLYOFNOQVPJJNP-UHFFFAOYSA-N
Kind: experiment
Temperature: 308 K
Tabular data in the source: 0
pressure (bar)	Copper fraction	Copper uptake (mg/g)	Water fraction	Water uptake (mg/g)	total uptake (mg/g)
1.01325	0.984	1.58614			
1.01325	6.872	2.16165			
1.01325	12.132	2.43765			
1.01325	26.555	2.64325			
1.01325	36.237	2.9566			
1.01325	45.291	3.07106			
1.01325	54.872	3.14105			
1.01325	64.349	3.16892			
1.01325	86.038	3.3182			
