Adsorption isotherm of Nickel, Water on Treated Laterite
DOI: 10.1016/j.jece.2017.06.029
Article source: Figure 4
Adsorbate Nickel: InChIKey PXHVJJICTQNCMI-UHFFFAOYSA-N
Adsorbate Water: InChIKey XLYOFNOQVPJJNP-UHFFFAOYSA-N
Kind: experiment
Temperature: 308 K
Tabular data in the source: 0
pressure (bar)	Nickel fraction	Nickel uptake (mg/g)	Water fraction	Water uptake (mg/g)	total uptake (mg/g)
1.01325	4.043	1.07017			
1.01325	11.349	1.23891			
1.01325	19.058	1.3132			
1.01325	25.948	1.68288			
1.01325	37.557	1.81742			
1.01325	48.093	1.94193			
1.01325	54.341	1.97805			
1.01325	62.93	2.04832			
1.01325	88.027	2.1466			
