Adsorption isotherm of Zinc, Water on Treated Laterite
DOI: 10.1016/j.jece.2017.06.029
Article source: Figure 4
Adsorbate Zinc: InChIKey HCHKCACWOHOZIP-UHFFFAOYSA-N
Adsorbate Water: InChIKey XLYOFNOQVPJJNP-UHFFFAOYSA-N
Kind: experiment
Temperature: 298 K
Tabular data in the source: 0
pressure (bar)	Zinc fraction	Zinc uptake (mg/g)	Water fraction	Water uptake (mg/g)	total uptake (mg/g)
1.01325	2.467	1.37289			
1.01325	8.256	1.88503			
1.01325	15.733	2.0503			
1.01325	47.667	2.62288			
1.01325	55.764	2.70198			
1.01325	73.629	2.85561			
