Adsorption isotherm of Cadmium, Water on Treated Laterite
DOI: 10.1016/j.jece.2017.06.029
Article source: Figure 4
Adsorbate Cadmium: InChIKey BDOSMKKIYDKNTQ-UHFFFAOYSA-N
Adsorbate Water: InChIKey XLYOFNOQVPJJNP-UHFFFAOYSA-N
Kind: experiment
Temperature: 298 K
Tabular data in the source: 0
pressure (bar)	Cadmium fraction	Cadmium uptake (mg/g)	Water fraction	Water uptake (mg/g)	total uptake (mg/g)
1.01325	1.243	1.7289			
1.01325	9.413	2.3194			
1.01325	16.357	2.7653			
1.01325	25.481	3.0247			
1.01325	34.74	3.1877			
1.01325	45.226	3.3509			
1.01325	55.03	3.5681			
1.01325	67.013	3.7313			
1.01325	89.209	4.166			
