Adsorption isotherm of Copper, Water on Treated Laterite
DOI: 10.1016/j.jece.2017.06.029
Article source: Figure 4
Adsorbate Copper: InChIKey RYGMFSIKBFXOCR-UHFFFAOYSA-N
Adsorbate Water: InChIKey XLYOFNOQVPJJNP-UHFFFAOYSA-N
Kind: experiment
Temperature: 318 K
Tabular data in the source: 0
pressure (bar)	Copper fraction	Copper uptake (mg/g)	Water fraction	Water uptake (mg/g)	total uptake (mg/g)
1.01325	0.667	1.7008			
1.01325	6.131	2.36524			
1.01325	15.601	2.82367			
1.01325	25.603	2.91003			
1.01325	35.711	2.93321			
1.01325	45.292	2.99852			
1.01325	54.768	3.08723			
1.01325	64.348	3.21104			
1.01325	86.143	3.33224			
