Adsorption isotherm of Nickel, Water on Treated Laterite
DOI: 10.1016/j.jece.2017.06.029
Article source: Figure 4
Adsorbate Nickel: InChIKey PXHVJJICTQNCMI-UHFFFAOYSA-N
Adsorbate Water: InChIKey XLYOFNOQVPJJNP-UHFFFAOYSA-N
Kind: experiment
Temperature: 318 K
Tabular data in the source: 0
pressure (bar)	Nickel fraction	Nickel uptake (mg/g)	Water fraction	Water uptake (mg/g)	total uptake (mg/g)
1.01325	3.551	1.09831			
1.01325	11.146	1.3012			
1.01325	18.656	1.39961			
1.01325	25.644	1.76526			
1.01325	47.689	2.04642			
1.01325	53.637	2.13479			
1.01325	61.729	2.26936			
1.01325	84.554	2.56257			
