Adsorption isotherm of Zinc, Water on Treated Laterite
DOI: 10.1016/j.jece.2017.06.029
Article source: Figure 4
Adsorbate Zinc: InChIKey HCHKCACWOHOZIP-UHFFFAOYSA-N
Adsorbate Water: InChIKey XLYOFNOQVPJJNP-UHFFFAOYSA-N
Kind: experiment
Temperature: 308 K
Tabular data in the source: 0
pressure (bar)	Zinc fraction	Zinc uptake (mg/g)	Water fraction	Water uptake (mg/g)	total uptake (mg/g)
1.01325	1.5	1.35025			
1.01325	8.346	1.85103			
1.01325	17.577	2.15225			
1.01325	25.049	2.43766			
1.01325	42.564	2.55049			
1.01325	58.576	2.82431			
1.01325	77.677	2.9167			
