Adsorption isotherm of Water on Ni-DOBDC
DOI: 10.1021/La102359q
Adsorbate Water: InChIKey XLYOFNOQVPJJNP-UHFFFAOYSA-N
Temperature: 298 K
Tabular data in the source: 0
pressure (bar)	uptake (mmol/g)
0.000279319	0.191571
0.000802954	19.3487
0.00163448	23.3716
0.00312323	24.9042
0.00470735	25.2874
0.00629219	25.2874
0.0125379	25.4789
0.0157069	25.8621
0.0188755	26.4368
0.0219505	27.2031
0.0251187	27.9693
0.0282863	29.1188
0.0312656	31.2261
