Adsorption isotherm of Carbon Dioxide on CuBTC
DOI: 10.1021/La102359q
Adsorbate Carbon Dioxide: InChIKey CURLTUGMZLYLDI-UHFFFAOYSA-N
Temperature: 298 K
Tabular data in the source: 0
pressure (bar)	uptake (mmol/g)
0.0254958	0.183908
0.0396601	0.245211
0.0651558	0.367816
0.082153	0.45977
0.101983	0.551724
0.127479	0.67433
0.152975	0.766284
0.181303	0.858238
0.206799	0.980843
0.229462	1.0728
0.25779	1.1341
0.283286	1.22605
0.311615	1.28736
0.33711	1.37931
0.365439	1.44061
0.390935	1.53257
0.416431	1.59387
0.444759	1.68582
0.470255	1.77778
0.498584	1.83908
0.524079	1.90038
0.546742	1.99234
0.575071	2.08429
0.603399	2.17625
0.628895	2.2682
0.657224	2.36015
0.68272	2.3908
0.711048	2.45211
0.736544	2.54406
0.764873	2.60536
0.790368	2.66667
0.818697	2.69732
