Adsorption isotherm of Carbon Dioxide on Zeolite 13X
DOI: 10.1021/La102359q
Adsorbate Carbon Dioxide: InChIKey CURLTUGMZLYLDI-UHFFFAOYSA-N
Temperature: 298 K
Tabular data in the source: 0
pressure (bar)	uptake (mmol/g)
0.00811741	1.01149
0.0108773	1.1954
0.0192653	1.44061
0.0248393	1.65517
0.0360305	1.96169
0.0641275	2.3908
0.0922571	2.72797
0.111944	2.97318
0.1345	3.09579
0.154231	3.21839
0.176786	3.341
0.190878	3.43295
0.21628	3.49425
0.238836	3.61686
0.269866	3.73946
0.292443	3.80077
