Adsorption isotherm of Carbon Dioxide on Ni-DOBDC
DOI: 10.1021/La102359q
Adsorbate Carbon Dioxide: InChIKey CURLTUGMZLYLDI-UHFFFAOYSA-N
Temperature: 298 K
Tabular data in the source: 0
pressure (bar)	uptake (mmol/g)
0.0310746	0.306513
0.0508721	0.421456
0.0650039	0.536398
0.0876233	0.689655
0.113076	0.842912
0.144194	0.996169
0.169657	1.11111
0.197942	1.26437
0.223405	1.37931
0.248868	1.49425
0.277165	1.6092
0.29414	1.68582
0.31677	1.80077
0.345066	1.91571
0.370519	2.06897
0.398815	2.18391
0.424278	2.29885
0.441264	2.33716
0.466727	2.45211
0.495034	2.52874
0.520508	2.60536
0.548815	2.68199
0.574289	2.75862
0.602596	2.83525
0.630914	2.87356
0.656388	2.95019
0.684695	3.02682
0.71018	3.06513
0.738498	3.10345
0.763972	3.18008
0.780958	3.21839
0.809276	3.2567
0.837593	3.29502
0.863078	3.33333
0.891385	3.40996
0.919703	3.44828
0.945188	3.48659
0.973506	3.5249
