Adsorption isotherm of Water on CuBTC
DOI: 10.1021/La102359q
Adsorbate Water: InChIKey XLYOFNOQVPJJNP-UHFFFAOYSA-N
Temperature: 298 K
Tabular data in the source: 0
pressure (bar)	uptake (mmol/g)
0.000372902	1.53846
0.000652579	1.92308
0.00111871	2.69231
0.00158483	3.26923
0.00288999	4.23077
0.00419515	5.19231
0.00503418	6.15385
0.00568676	7.30769
0.00652579	8.07692
0.00680546	9.23077
0.00708514	10.1923
0.00736482	11.3462
0.00783094	12.3077
0.00801739	13.4615
0.0083903	14.2308
0.00866997	15.5769
0.0091361	16.3462
0.009509	17.5
0.00978868	18.6538
0.0107209	19.4231
0.0124922	20.3846
0.0141703	21.1538
0.0160348	21.9231
0.0176196	22.5
