Adsorption isotherm of Carbon Dioxide on Ni-DOBDC
DOI: 10.1021/La102359q
Adsorbate Carbon Dioxide: InChIKey CURLTUGMZLYLDI-UHFFFAOYSA-N
Temperature: 298 K
Tabular data in the source: 0
pressure (bar)	uptake (mmol/g)
0.0139255	0.842912
0.0223481	1.11111
0.0335927	1.41762
0.0448265	1.76245
0.0589148	2.03065
0.0645154	2.26054
0.0814366	2.52874
0.101191	2.79693
0.120923	3.14176
0.143542	3.29502
0.168984	3.48659
0.191593	3.67816
0.217045	3.83142
0.242486	4.02299
0.25944	4.17625
0.284903	4.29119
0.313189	4.44444
0.338641	4.5977
0.364104	4.71264
0.389567	4.82759
0.417863	4.94253
0.443326	5.05747
0.471633	5.1341
0.497097	5.24904
0.525403	5.32567
0.550878	5.4023
0.579195	5.44061
0.604669	5.51724
0.632976	5.59387
0.65845	5.6705
0.726406	5.78544
0.754713	5.86207
0.780187	5.9387
0.808505	5.97701
0.833979	6.05364
0.862297	6.09195
0.890604	6.16858
0.916089	6.2069
0.944396	6.28352
0.972703	6.36015
