Adsorption isotherm of Carbon Dioxide on Ni-DOBDC
DOI: 10.1021/La102359q
Adsorbate Carbon Dioxide: InChIKey CURLTUGMZLYLDI-UHFFFAOYSA-N
Temperature: 298 K
Tabular data in the source: 0
pressure (bar)	uptake (mmol/g)
0.00829236	0.727969
0.0279487	1.341
0.0531623	2.33716
0.0953947	3.2567
0.19423	4.36782
0.423464	5.17241
0.69239	5.86207
0.952807	6.59004
