Adsorption isotherm of Carbon Dioxide on Ni-DOBDC
DOI: 10.1021/La102359q
Adsorbate Carbon Dioxide: InChIKey CURLTUGMZLYLDI-UHFFFAOYSA-N
Temperature: 298 K
Tabular data in the source: 0
pressure (bar)	uptake (mmol/g)
0.0112229	0.383142
0.0224675	0.689655
0.0534662	1.26437
0.118372	2.14559
0.237157	2.83525
0.40969	3.7931
0.653099	4.55939
