Adsorption isotherm of Carbon Dioxide on Ni-DOBDC
DOI: 10.1021/La102359q
Adsorbate Carbon Dioxide: InChIKey CURLTUGMZLYLDI-UHFFFAOYSA-N
Temperature: 298 K
Tabular data in the source: 0
pressure (bar)	uptake (mmol/g)
0.00566572	0.337165
0.0113314	0.67433
0.0169972	1.01149
0.0226629	1.31801
0.0283286	1.47126
0.0339943	1.80843
0.0481586	2.17625
0.0538244	2.3295
0.0764873	2.78927
0.0849858	2.97318
0.0963173	3.18774
0.116147	3.37165
0.135977	3.61686
0.155807	3.83142
0.17847	4.01533
0.201133	4.19923
0.226629	4.32184
0.252125	4.44444
0.27762	4.56705
0.303116	4.68966
0.331445	4.78161
0.356941	4.87356
0.385269	4.96552
0.410765	5.05747
0.436261	5.14943
0.464589	5.21073
0.490085	5.30268
0.518414	5.36398
0.543909	5.45594
0.572238	5.51724
0.597734	5.57854
0.623229	5.6705
0.651558	5.7318
0.677054	5.7931
0.70255	5.85441
0.730878	5.94636
0.756374	6.03831
0.784703	6.09962
0.810198	6.19157
0.838527	6.25287
0.866856	6.34483
0.892351	6.40613
0.92068	6.49808
0.946176	6.59004
