Adsorption isotherm of Carbon Dioxide on CuBTC
DOI: 10.1021/La102359q
Adsorbate Carbon Dioxide: InChIKey CURLTUGMZLYLDI-UHFFFAOYSA-N
Temperature: 298 K
Tabular data in the source: 0
pressure (bar)	uptake (mmol/g)
0.0225556	0.122605
0.0535641	0.306513
0.107139	0.582375
0.228435	1.0728
0.380836	1.47126
0.521928	1.90038
0.663008	2.36015
0.821071	2.72797
