Adsorption isotherm of Carbon Dioxide on Ni-DOBDC
DOI: 10.1021/La102359q
Adsorbate Carbon Dioxide: InChIKey CURLTUGMZLYLDI-UHFFFAOYSA-N
Temperature: 298 K
Tabular data in the source: 0
pressure (bar)	uptake (mmol/g)
0.00830321	0.689655
0.0279596	1.30268
0.11809	3.14176
0.262273	4.17625
0.434817	5.09579
0.717908	5.78544
