Adsorption isotherm of Carbon Dioxide on Zeolite 13X
DOI: 10.1021/La102359q
Adsorbate Carbon Dioxide: InChIKey CURLTUGMZLYLDI-UHFFFAOYSA-N
Temperature: 298 K
Tabular data in the source: 0
pressure (bar)	uptake (mmol/g)
0.00819317	0.796935
0.0108773	1.1954
0.0304457	1.77778
0.11478	2.94253
0.165487	3.341
0.303721	3.86207
