Adsorption isotherm of Carbon Dioxide on Ni-DOBDC
DOI: 10.1021/La102359q
Adsorbate Carbon Dioxide: InChIKey CURLTUGMZLYLDI-UHFFFAOYSA-N
Temperature: 298 K
Tabular data in the source: 0
pressure (bar)	uptake (mmol/g)
0.0424604	0.114943
0.0594684	0.0766284
0.104783	0.114943
0.135934	0.153257
0.184093	0.153257
0.237906	0.191571
0.286043	0.268199
0.334202	0.268199
0.368174	0.344828
0.427664	0.344828
0.461648	0.383142
0.49562	0.45977
0.529626	0.421456
0.566442	0.45977
0.608924	0.498084
0.645751	0.498084
0.665581	0.498084
0.71374	0.498084
0.753389	0.536398
0.790195	0.613027
0.84403	0.574713
