Adsorption isotherm of Carbon Dioxide on Ni-DOBDC
DOI: 10.1021/La102359q
Adsorbate Carbon Dioxide: InChIKey CURLTUGMZLYLDI-UHFFFAOYSA-N
Temperature: 298 K
Tabular data in the source: 0
pressure (bar)	uptake (mmol/g)
0.0594684	0.0766284
0.110449	0.114943
0.167106	0.114943
0.266267	0.0766284
0.311582	0.114943
0.368239	0.114943
0.416387	0.153257
0.467379	0.153257
0.535378	0.114943
0.57786	0.153257
0.631685	0.153257
0.674167	0.191571
0.705339	0.153257
0.753487	0.191571
0.832796	0.229885
0.861125	0.229885
0.889453	0.229885
0.909272	0.268199
0.937601	0.268199
0.96593	0.268199
0.994247	0.306513
