Adsorption isotherm of Carbon Dioxide on Ni-DOBDC
DOI: 10.1021/La102359q
Adsorbate Carbon Dioxide: InChIKey CURLTUGMZLYLDI-UHFFFAOYSA-N
Temperature: 298 K
Tabular data in the source: 0
pressure (bar)	uptake (mmol/g)
0.00283286	0.337165
0.00849858	0.67433
0.0226629	1.28736
0.0509915	2.29885
0.0963173	3.21839
0.192635	4.35249
0.424929	5.14943
0.694051	5.82375
0.951841	6.59004
