Adsorption isotherm of Carbon Dioxide on CuBTC
DOI: 10.1021/La102359q
Adsorbate Carbon Dioxide: InChIKey CURLTUGMZLYLDI-UHFFFAOYSA-N
Temperature: 298 K
Tabular data in the source: 0
pressure (bar)	uptake (mmol/g)
0.0197035	0.136662
0.0506223	0.288646
0.104035	0.562182
0.238809	1.01877
0.36799	1.49042
0.502775	1.96216
0.662716	2.35853
0.819856	2.75485
