Adsorption isotherm of Carbon Dioxide on CuBTC
DOI: 10.1021/La102359q
Adsorbate Carbon Dioxide: InChIKey CURLTUGMZLYLDI-UHFFFAOYSA-N
Temperature: 298 K
Tabular data in the source: 0
pressure (bar)	uptake (mmol/g)
0.00915037	0.0454545
0.0680056	0.121212
0.18195	0.181818
0.376244	0.439394
0.601656	0.606061
0.696111	0.757576
0.801478	0.833333
