Adsorption isotherm of Carbon Dioxide on CuBTC
DOI: 10.1021/La102359q
Adsorbate Carbon Dioxide: InChIKey CURLTUGMZLYLDI-UHFFFAOYSA-N
Temperature: 298 K
Tabular data in the source: 0
pressure (bar)	uptake (mmol/g)
0.0225047	0.136705
0.0393646	0.212718
0.0815198	0.410326
0.118062	0.592698
0.207943	0.942545
0.23884	1.06422
0.27255	1.2011
0.323066	1.33823
0.345528	1.41433
0.426942	1.67314
0.460619	1.76455
0.49991	1.87121
0.544824	2.00825
0.581302	2.09972
0.626206	2.22161
0.687948	2.38921
0.73284	2.49595
0.783356	2.63308
0.805798	2.67888
0.859115	2.81605
0.901206	2.92275
0.951701	3.02957
0.996594	3.13631
