Adsorption isotherm of Carbon Dioxide on Ni-DOBDC
DOI: 10.1021/La102359q
Adsorbate Carbon Dioxide: InChIKey CURLTUGMZLYLDI-UHFFFAOYSA-N
Temperature: 298 K
Tabular data in the source: 0
pressure (bar)	uptake (mmol/g)
0.00835552	0.337165
0.0110505	0.704981
0.0249583	1.31801
0.0528606	2.29885
0.0948979	3.24904
0.193378	4.35249
0.421911	5.14943
0.690023	5.85441
0.94965	6.59004
