Adsorption isotherm of Carbon Dioxide on Ni-DOBDC
DOI: 10.1021/La102359q
Adsorbate Carbon Dioxide: InChIKey CURLTUGMZLYLDI-UHFFFAOYSA-N
Temperature: 298 K
Tabular data in the source: 0
pressure (bar)	uptake (mmol/g)
0.0139147	0.881226
0.0223373	1.14943
0.0307382	1.49425
0.0391391	1.83908
0.0447288	2.10728
0.0644395	2.52874
0.0813498	2.83525
0.106715	3.29502
0.12648	3.5249
0.149067	3.7931
0.171676	3.98467
0.197117	4.17625
0.205605	4.21456
0.231057	4.36782
0.25651	4.52107
0.284806	4.63602
0.310269	4.75096
0.338576	4.82759
0.366872	4.94253
0.392346	5.01916
0.420642	5.1341
0.443294	5.17241
0.471601	5.24904
0.497075	5.32567
0.525382	5.4023
0.550856	5.47893
0.579163	5.55556
0.604637	5.63218
0.632944	5.70881
0.658418	5.78544
0.726352	5.97701
0.75467	6.01533
0.780133	6.13027
0.808451	6.16858
0.833914	6.28352
0.862232	6.32184
0.887706	6.39847
0.916013	6.4751
0.94432	6.55172
