Adsorption isotherm of Carbon Dioxide on CuBTC
DOI: 10.1021/La102359q
Adsorbate Carbon Dioxide: InChIKey CURLTUGMZLYLDI-UHFFFAOYSA-N
Temperature: 298 K
Tabular data in the source: 0
pressure (bar)	uptake (mmol/g)
0.0393897	0.0909091
0.0618935	0.136364
0.0900366	0.212121
0.11254	0.257576
0.140673	0.318182
0.157569	0.378788
0.180073	0.424242
0.208206	0.484848
0.233529	0.545455
0.258842	0.590909
0.284165	0.651515
0.312287	0.69697
0.33477	0.712121
0.357305	0.80303
0.382618	0.848485
0.41074	0.893939
0.436064	0.954545
0.464185	1
0.489498	1.04545
0.497946	1.07576
0.523238	1.09091
0.548551	1.13636
0.576662	1.16667
0.601975	1.21212
0.630086	1.24242
0.655388	1.27273
0.683499	1.30303
0.70878	1.30303
0.734093	1.34848
0.759395	1.37879
0.787506	1.40909
0.812809	1.43939
0.840909	1.45455
0.86901	1.4697
0.897121	1.5
0.919603	1.51515
0.944895	1.5303
0.970186	1.54545
0.998287	1.56061
