Adsorption isotherm of Carbon Dioxide on CuBTC
DOI: 10.1021/La102359q
Adsorbate Carbon Dioxide: InChIKey CURLTUGMZLYLDI-UHFFFAOYSA-N
Temperature: 298 K
Tabular data in the source: 0
pressure (bar)	uptake (mmol/g)
0.00558453	0.0346154
0.0223598	0.126923
0.226793	1.07308
0.372903	1.48846
0.516167	1.91538
0.656584	2.35385
0.819709	2.73462
