Adsorption isotherm of Carbon Dioxide on CuBTC
DOI: 10.1021/La102359q
Adsorbate Carbon Dioxide: InChIKey CURLTUGMZLYLDI-UHFFFAOYSA-N
Temperature: 298 K
Tabular data in the source: 0
pressure (bar)	uptake (mmol/g)
0.0449438	0
0.101134	0.0151515
0.126436	0.0454545
0.151696	0.0151515
0.179786	0.0151515
0.205088	0.0454545
0.233178	0.0454545
0.303403	0.0454545
0.331503	0.0606061
0.359593	0.0606061
0.387683	0.0606061
0.404537	0.0606061
0.432627	0.0606061
0.4523	0.0757576
0.48039	0.0757576
0.50848	0.0757576
0.539368	0.0606061
0.567469	0.0757576
0.603986	0.0757576
0.632086	0.0909091
0.660176	0.0909091
0.688266	0.0909091
0.716356	0.0909091
0.744446	0.0909091
0.806254	0.106061
0.831535	0.106061
0.859625	0.106061
0.887715	0.106061
0.915805	0.106061
0.938277	0.106061
0.966377	0.121212
0.994467	0.121212
