Adsorption isotherm of Carbon Dioxide on Zeolite 5A
DOI: 10.1021/La102359q
Adsorbate Carbon Dioxide: InChIKey CURLTUGMZLYLDI-UHFFFAOYSA-N
Temperature: 298 K
Tabular data in the source: 0
pressure (bar)	uptake (mmol/g)
0.00518432	1.31801
0.00794424	1.50192
0.0163106	1.80843
0.0388012	2.11494
0.0837825	2.72797
0.100678	2.88123
0.148603	3.15709
0.179633	3.27969
0.19655	3.37165
0.224766	3.4636
0.250168	3.5249
0.281198	3.64751
0.309447	3.64751
0.334849	3.70881
0.363086	3.73946
0.388488	3.80077
0.416726	3.83142
0.444953	3.89272
0.470366	3.92337
0.498604	3.95402
0.526842	3.98467
0.555079	4.01533
0.580481	4.07663
0.60873	4.07663
0.636957	4.13793
0.659556	4.13793
0.687794	4.16858
0.716031	4.19923
0.741444	4.22989
0.769682	4.26054
0.797931	4.26054
0.826168	4.29119
0.854406	4.32184
0.882655	4.32184
0.888294	4.35249
0.916542	4.35249
0.94478	4.38314
0.973018	4.41379
