Adsorption isotherm of Carbon Dioxide on Zeolite 5A
DOI: 10.1021/La102359q
Adsorbate Carbon Dioxide: InChIKey CURLTUGMZLYLDI-UHFFFAOYSA-N
Temperature: 298 K
Tabular data in the source: 0
pressure (bar)	uptake (mmol/g)
0.00529255	1.01149
0.00802	1.28736
0.0163863	1.59387
0.0275451	1.99234
0.0640518	2.60536
0.137303	3.15709
0.275537	3.67816
0.65107	4.16858
0.984339	4.35249
