Adsorption isotherm of Water on CuBTC
DOI: 10.1021/La102359q
Adsorbate Water: InChIKey XLYOFNOQVPJJNP-UHFFFAOYSA-N
Temperature: 298 K
Tabular data in the source: 0
pressure (bar)	uptake (mmol/g)
0.00083903	5.19231
0.00158483	9.42308
0.00307644	11.7308
0.00466128	12.5
0.00624611	13.6538
0.00783094	14.2308
0.00941578	15
0.0125854	16.7308
0.0156619	18.6538
0.0188316	23.4615
0.021908	33.4615
0.0250777	36.5385
0.0281541	39.0385
0.0313238	41.5385
