Adsorption isotherm of Carbon Dioxide on CuBTC
DOI: 10.1021/La102359q
Adsorbate Carbon Dioxide: InChIKey CURLTUGMZLYLDI-UHFFFAOYSA-N
Temperature: 298 K
Tabular data in the source: 0
pressure (bar)	uptake (mmol/g)
0.0112125	0.0461538
0.025163	0.138462
0.0503042	0.288462
0.114841	0.519231
0.232486	1.05
0.375728	1.48846
0.552912	1.90385
0.687831	2.26154
0.879422	2.52692
