Adsorption isotherm of Water on CuBTC
DOI: 10.1021/La102359q
Adsorbate Water: InChIKey XLYOFNOQVPJJNP-UHFFFAOYSA-N
Temperature: 298 K
Tabular data in the source: 0
pressure (bar)	uptake (mmol/g)
0.000559353	0.769231
0.000745804	1.53846
0.00102548	2.69231
0.00149161	4.61538
0.00233064	9.03846
0.00391547	14.2308
0.0043816	15.7692
0.00522063	17.1154
0.00596643	19.6154
0.00671224	22.6923
0.00755127	23.4615
0.0091361	24.4231
0.0107209	25.1923
0.0120261	25.3846
0.0136109	25.7692
0.0151958	25.9615
0.0165009	26.1538
0.0183654	26.7308
0.0195774	26.7308
0.0213486	27.3077
0.0231199	27.6923
0.0241454	28.6538
0.025637	29.0385
0.0271286	30
0.0286202	34.2308
0.0291796	35
