Adsorption isotherm of Carbon Dioxide on Ni-DOBDC
DOI: 10.1021/La102359q
Adsorbate Carbon Dioxide: InChIKey CURLTUGMZLYLDI-UHFFFAOYSA-N
Temperature: 298 K
Tabular data in the source: 0
pressure (bar)	uptake (mmol/g)
0.00549819	0.429119
0.0136481	1.34866
0.0275667	1.93103
0.0639219	2.97318
0.100461	3.49425
0.128612	3.77011
0.263935	4.5364
0.64212	5.51724
0.980897	6.09962
