Adsorption isotherm of Carbon Dioxide on CuBTC
DOI: 10.1021/La102359q
Adsorbate Carbon Dioxide: InChIKey CURLTUGMZLYLDI-UHFFFAOYSA-N
Temperature: 298 K
Tabular data in the source: 0
pressure (bar)	uptake (mmol/g)
0.0337504	0.0606061
0.075981	0.19697
0.160368	0.363636
0.331961	0.712121
0.500745	1.06061
0.705971	1.30303
0.925211	1.5
