Adsorption isotherm of Carbon Dioxide on Ni-DOBDC
DOI: 10.1021/La102359q
Adsorbate Carbon Dioxide: InChIKey CURLTUGMZLYLDI-UHFFFAOYSA-N
Temperature: 298 K
Tabular data in the source: 0
pressure (bar)	uptake (mmol/g)
0.0168561	0.498084
0.0281115	0.766284
0.0421999	1.03448
0.0619431	1.341
0.0816971	1.6092
0.101451	1.87739
0.118372	2.14559
0.143836	2.26054
0.169288	2.41379
0.191896	2.60536
0.220182	2.75862
0.242812	2.87356
0.265431	3.02682
0.293717	3.18008
0.31918	3.29502
0.344632	3.44828
0.372928	3.56322
0.398391	3.67816
0.418189	3.7931
0.443663	3.86973
0.471959	3.98467
0.497433	4.0613
0.525729	4.17625
0.554036	4.25287
0.57951	4.3295
0.607817	4.40613
0.633291	4.48276
0.655932	4.55939
0.681428	4.55939
0.709735	4.63602
0.73522	4.67433
0.763537	4.71264
0.769192	4.75096
0.79751	4.78927
0.811664	4.82759
0.839981	4.8659
0.868299	4.90421
0.893784	4.94253
0.922102	4.98084
0.95042	5.01916
0.978737	5.05747
