Adsorption isotherm of Carbon Dioxide on CuBTC
DOI: 10.1021/La102359q
Adsorbate Carbon Dioxide: InChIKey CURLTUGMZLYLDI-UHFFFAOYSA-N
Temperature: 298 K
Tabular data in the source: 0
pressure (bar)	uptake (mmol/g)
0.0420168	0.0454545
0.0644258	0.0757576
0.109244	0.106061
0.137255	0.151515
0.179272	0.19697
0.221289	0.242424
0.2493	0.257576
0.27451	0.287879
0.302521	0.318182
0.327731	0.348485
0.355742	0.378788
0.380952	0.409091
0.439776	0.454545
0.473389	0.5
0.507003	0.530303
0.537815	0.575758
0.563025	0.606061
0.621849	0.651515
0.64986	0.681818
0.67507	0.712121
0.70028	0.757576
0.72549	0.772727
0.753501	0.787879
0.778711	0.818182
0.806723	0.848485
0.834734	0.878788
0.859944	0.909091
0.887955	0.939394
0.913165	0.969697
0.941176	0.984848
0.966387	1.01515
0.994398	1.04545
