Adsorption isotherm of Nitrogen on TpTGI
DOI: 10.1021/jacs.5b13533
Article source: Figure 2a
Adsorbate Nitrogen: InChIKey IJGRMHOSHXDMSA-UHFFFAOYSA-N
Kind: experiment
Temperature: 77 K
Tabular data in the source: 0
pressure (bar)	uptake (cm3(STP)/g)
0.011816	52.5097
0.020679	60.2317
0.033972	75.6757
0.062036	83.3977
0.085668	89.5753
0.113732	96.5251
0.141796	98.8417
0.171337	101.931
0.192015	106.564
0.212694	109.653
0.239281	112.741
0.265867	115.83
0.286546	118.919
0.313133	123.552
0.339719	126.641
0.367783	130.502
0.392893	134.363
0.41948	137.452
0.44902	142.085
0.469699	143.629
0.493332	146.718
0.525827	150.579
0.546505	154.44
0.576046	157.529
0.602633	162.162
0.632173	166.795
0.655806	170.656
0.679439	176.062
0.711934	180.695
0.726704	183.784
0.750337	189.961
0.78874	196.139
0.821235	203.861
0.833051	208.494
0.85373	211.583
0.886224	219.305
0.906903	228.571
0.93349	236.293
0.968939	257.915
1.00439	305.792
1.01325	335.135
0.930536	253.282
0.88327	234.749
0.833051	217.761
0.796125	210.811
0.744429	202.317
0.688301	191.506
0.632173	182.239
0.584908	173.745
0.534689	166.795
0.478561	157.529
0.429819	145.946
0.375168	138.996
0.320518	129.73
0.262913	122.78
0.212694	115.83
0.15952	108.108
0.107824	101.158
0.059082	89.5753
0.016247	71.0425
