Adsorption isotherm of Water on TpTGBr
DOI: 10.1021/jacs.5b13533
Article source: Figure 2b
Adsorbate Water: InChIKey XLYOFNOQVPJJNP-UHFFFAOYSA-N
Kind: experiment
Temperature: 298 K
Tabular data in the source: 0
pressure (bar)	uptake (cm3(STP)/g)
0.000182	2.13144
0.000272	9.23623
0.001589	32.6821
0.00345	49.0231
0.005266	64.6536
0.007037	74.6004
0.008717	84.5471
0.010397	95.2043
0.012349	104.44
0.013938	112.966
0.015754	122.913
0.017525	134.281
0.019159	147.069
0.020884	164.121
0.022655	184.014
0.024335	206.75
0.026151	229.485
0.027876	257.904
0.029873	287.744
0.031508	353.108
0.031326	353.108
0.027603	289.165
0.024062	257.904
0.020884	232.327
0.017434	203.908
0.013983	174.067
0.010442	127.176
0.006719	98.7567
0.005085	87.389
0.00345	71.7584
