Adsorption isotherm of Water on TpTGI
DOI: 10.1021/jacs.5b13533
Article source: Figure 2b
Adsorbate Water: InChIKey XLYOFNOQVPJJNP-UHFFFAOYSA-N
Kind: experiment
Temperature: 298 K
Tabular data in the source: 0
pressure (bar)	uptake (cm3(STP)/g)
0.001725	27.7087
0.00345	41.9183
0.005312	54.7069
0.007082	63.9432
0.008717	71.7584
0.010442	80.2842
0.012394	90.2309
0.013938	98.7567
0.015709	107.993
0.017343	117.229
0.019431	128.597
0.020884	144.227
0.0227	166.963
0.024516	191.119
0.025969	215.275
0.027967	242.274
0.029692	273.535
0.031417	309.059
0.027422	270.693
0.024425	243.694
0.020793	213.854
0.017252	186.856
0.013802	148.49
0.009897	110.124
0.007082	91.6519
0.005176	78.8632
0.003632	67.4956
0.001725	46.1812
