Adsorption isotherm of Water on TpTGCl
DOI: 10.1021/jacs.5b13533
Article source: Figure 2b
Adsorbate Water: InChIKey XLYOFNOQVPJJNP-UHFFFAOYSA-N
Kind: experiment
Temperature: 298 K
Tabular data in the source: 0
pressure (bar)	uptake (cm3(STP)/g)
0.001907	34.8135
0.00345	44.7602
0.004994	58.9698
0.00681	76.0213
0.008535	85.968
0.010805	97.3357
0.012167	108.703
0.013892	117.229
0.015709	131.439
0.017343	142.806
0.018887	151.332
0.020975	165.542
0.022519	179.751
0.024244	193.961
0.026423	216.696
0.027785	236.59
0.029601	273.535
0.031054	327.531
0.031326	327.531
0.028057	277.798
0.023971	228.064
0.020612	201.066
0.017252	172.647
0.013802	148.49
0.010442	127.176
0.006992	104.44
0.004994	76.0213
0.00336	61.8117
0.001634	43.3393
