Adsorption isotherm of Nitrogen on TpTGCl
DOI: 10.1021/jacs.5b13533
Article source: Figure 2a
Adsorbate Nitrogen: InChIKey IJGRMHOSHXDMSA-UHFFFAOYSA-N
Kind: experiment
Temperature: 77 K
Tabular data in the source: 0
pressure (bar)	uptake (cm3(STP)/g)
0.005908	24.7104
0.008862	37.0656
0.017724	40.1544
0.07976	57.1429
0.12998	64.8649
0.180199	71.0425
0.230418	75.6757
0.286546	81.8533
0.357444	91.1197
0.410617	95.7529
0.457883	103.475
0.505148	108.108
0.555367	115.83
0.617403	125.097
0.65876	134.363
0.711934	149.807
0.762153	163.707
0.815327	188.417
0.865546	220.849
0.915765	271.815
0.954168	321.236
0.965985	362.934
0.983709	396.911
1.00439	437.066
1.00143	437.066
0.964508	391.506
0.943829	362.934
0.912811	308.88
0.865546	247.104
0.809418	205.405
0.765107	179.151
0.706026	160.618
0.661714	145.174
0.608541	132.819
0.558321	122.008
0.508102	112.741
0.457883	106.564
0.410617	97.2973
0.360398	92.6641
0.310179	86.4865
0.254051	80.3089
0.206786	74.1313
0.153612	69.4981
0.10487	62.5483
0.054651	53.2819
