Adsorption isotherm of Nitrogen on TpTGBr
DOI: 10.1021/jacs.5b13533
Article source: Figure 2a
Adsorbate Nitrogen: InChIKey IJGRMHOSHXDMSA-UHFFFAOYSA-N
Kind: experiment
Temperature: 77 K
Tabular data in the source: 0
pressure (bar)	uptake (cm3(STP)/g)
0.008862	47.8764
0.029541	58.6873
0.07976	69.4981
0.12998	74.9035
0.18463	81.0811
0.237804	88.0309
0.2895	93.4363
0.339719	97.2973
0.392893	102.703
0.451974	109.653
0.49924	112.741
0.549459	117.375
0.56423	117.375
0.599679	118.919
0.626265	122.008
0.655806	125.097
0.688301	129.73
0.714888	131.274
0.735566	132.819
0.759199	134.363
0.791694	138.996
0.812372	140.541
0.865546	152.896
0.889179	155.985
0.898041	157.529
0.903949	159.073
0.921673	163.707
0.930536	168.34
0.989617	199.228
0.99848	208.494
1.02507	257.915
0.942352	185.328
0.89361	164.479
0.838959	152.896
0.791694	146.718
0.741474	140.541
0.685347	135.907
0.641036	132.819
0.576046	129.73
0.525827	126.641
0.472653	120.463
0.422434	111.197
0.36926	101.931
0.316087	100.386
0.262913	95.7529
0.20974	90.3475
0.150658	83.3977
0.103393	78.7645
0.053173	72.5869
0.01477	57.9151
