Adsorption isotherm of Carbon Dioxide on ZIF-81
DOI: 10.1021/ar500272n
Article source: Figure 5- ZIF81 experiment
Adsorbate Carbon Dioxide: InChIKey CURLTUGMZLYLDI-UHFFFAOYSA-N
Kind: experiment
Temperature: 298 K
Tabular data in the source: 0
pressure (bar)	uptake (cm3(STP)/cm3)
0.201253	14.368
0.243173	16.831
0.279838	18.878
0.323565	21.101
0.372886	23.61
0.427404	26.131
0.483277	28.504
0.531241	30.557
0.589148	32.787
0.627169	34.145
0.696601	36.511
0.790212	39.716
0.895405	43.232
0.996248	46.605
1.06455	48.958
