Adsorption isotherm of Carbon Dioxide on ZIF-70
DOI: 10.1021/ar500272n
Article source: Figure 5- ZIF70 experiment
Adsorbate Carbon Dioxide: InChIKey CURLTUGMZLYLDI-UHFFFAOYSA-N
Kind: experiment
Temperature: 298 K
Tabular data in the source: 0
pressure (bar)	uptake (cm3(STP)/cm3)
0.201577	7.011
0.285982	9.303
0.336094	10.615
0.386376	11.933
0.437731	13.232
0.49643	14.674
0.562962	16.243
0.608067	17.342
0.666654	18.602
0.713489	19.621
0.770042	20.848
0.835158	22.158
0.935915	24.004
0.994502	25.075
1.06535	26.438
