Adsorption isotherm of Carbon Dioxide on UiO-66
DOI: 10.1021/ar500272n
Article source: Figure 5- UiO66 experiment
Adsorbate Carbon Dioxide: InChIKey CURLTUGMZLYLDI-UHFFFAOYSA-N
Kind: experiment
Temperature: 298 K
Tabular data in the source: 0
pressure (bar)	uptake (cm3(STP)/cm3)
0.100913	13.127
0.149957	19.519
0.212335	25.963
0.23454	28.496
0.280305	31.99
0.324483	35.18
0.376016	38.927
0.412798	41.817
0.474948	45.727
0.533764	49.189
0.603823	53.079
0.678571	56.995
0.816485	63.281
0.881007	66.086
0.943551	68.404
