Adsorption isotherm of Carbon Dioxide on ZIF-78
DOI: 10.1021/ar500272n
Article source: Figure 5- ZIF78
Adsorbate Carbon Dioxide: InChIKey CURLTUGMZLYLDI-UHFFFAOYSA-N
Kind: experiment
Temperature: 298 K
Tabular data in the source: 0
pressure (bar)	uptake (cm3(STP)/cm3)
0.201543	24.457
0.254826	27.765
0.309634	30.892
0.360148	33.765
0.42411	37.178
0.470838	39.479
0.52768	42.294
0.619836	46.265
0.660914	47.845
0.730525	50.432
0.788723	52.558
0.838219	54.047
0.937889	56.615
0.990831	57.954
1.06547	59.892
