Adsorption isotherm of Carbon Dioxide on ZIF-79
DOI: 10.1021/ar500272n
Article source: Figure 5- ZIF79 experiment
Adsorbate Carbon Dioxide: InChIKey CURLTUGMZLYLDI-UHFFFAOYSA-N
Kind: experiment
Temperature: 298 K
Tabular data in the source: 0
pressure (bar)	uptake (cm3(STP)/cm3)
0.201356	11.015
0.260678	13.73
0.324407	15.926
0.410508	18.869
0.494576	21.682
0.547172	23.349
0.603559	25.073
0.667401	26.685
0.717684	27.919
0.764972	29.075
0.821695	30.472
0.880339	31.758
0.928644	32.856
0.99774	34.447
1.06537	35.928
