Adsorption isotherm of Carbon Dioxide on ZIF-71
DOI: 10.1021/ar500272n
Article source: Figure 5- ZIF71 experiment
Adsorbate Carbon Dioxide: InChIKey CURLTUGMZLYLDI-UHFFFAOYSA-N
Kind: experiment
Temperature: 298 K
Tabular data in the source: 0
pressure (bar)	uptake (cm3(STP)/cm3)
0.22446	4.342
0.293772	5.564
0.33354	6.234
0.377828	6.995
0.457688	8.296
0.568886	10.07
0.615591	10.727
0.660165	11.414
0.693038	11.93
0.729586	12.489
0.806598	13.602
0.841887	14.135
0.880751	14.687
0.95172	15.707
1.02971	16.846
