Adsorption isotherm of Carbon Dioxide on ZIF-69
DOI: 10.1021/ar500272n
Article source: Figure 5- ZIF69 experiment
Adsorbate Carbon Dioxide: InChIKey CURLTUGMZLYLDI-UHFFFAOYSA-N
Kind: experiment
Temperature: 298 K
Tabular data in the source: 0
pressure (bar)	uptake (cm3(STP)/cm3)
0.201356	13.024
0.259322	15.636
0.333051	19.489
0.381073	21.984
0.431864	24.434
0.484181	26.773
0.523051	28.54
0.582712	31.204
0.648362	33.66
0.701352	35.516
0.741469	36.967
0.83887	40.437
0.95226	44.738
1.02232	47.33
1.06559	48.935
