Adsorption isotherm of Carbon Dioxide on IRMOF-1
DOI: 10.1021/ar500272n
Article source: Figure 5- MOF5 experiment
Adsorbate Carbon Dioxide: InChIKey CURLTUGMZLYLDI-UHFFFAOYSA-N
Kind: experiment
Temperature: 298 K
Tabular data in the source: 0
pressure (bar)	uptake (cm3(STP)/cm3)
0.134741	1.533
0.167116	1.846
0.23407	2.581
0.326167	3.59
0.367017	3.994
0.431429	4.743
0.484201	5.27
0.550138	5.967
0.606526	6.565
0.704819	7.583
0.813264	8.785
0.861685	9.3
0.926209	10.055
0.991073	10.79
1.06294	11.546
