Adsorption isotherm of Carbon Dioxide on ZIF-25
DOI: 10.1021/ar500272n
Article source: Figure 5- ZIF25 experiment
Adsorbate Carbon Dioxide: InChIKey CURLTUGMZLYLDI-UHFFFAOYSA-N
Kind: experiment
Temperature: 298 K
Tabular data in the source: 0
pressure (bar)	uptake (cm3(STP)/cm3)
0.221018	6.258
0.263846	7.194
0.312324	8.312
0.366848	9.469
0.413122	10.405
0.447691	11.07
0.488303	11.835
0.525786	12.588
0.559455	13.191
0.610989	14.122
0.669242	15.116
0.726647	16.143
0.798234	17.3
0.920616	19.262
1.02565	20.9
