Adsorption isotherm of Carbon Dioxide on ZIF-68
DOI: 10.1021/ar500272n
Article source: Figure 5- ZIF68 experiment
Adsorbate Carbon Dioxide: InChIKey CURLTUGMZLYLDI-UHFFFAOYSA-N
Kind: experiment
Temperature: 298 K
Tabular data in the source: 0
pressure (bar)	uptake (cm3(STP)/cm3)
0.202719	10.022
0.251481	12.285
0.287643	13.851
0.344541	16.186
0.39805	18.39
0.541227	23.41
0.57366	24.814
0.60451	26.101
0.678924	28.332
0.74893	30.465
0.824078	32.695
0.872331	34.165
0.957029	36.701
1.01517	38.418
1.06495	39.946
