Adsorption isotherm of Nitrogen on Ni-DHTP
DOI: 10.5012/bkcs.2010.31.6.1489
Adsorbate Nitrogen: InChIKey IJGRMHOSHXDMSA-UHFFFAOYSA-N
Temperature: 77 K
Tabular data in the source: 0
pressure (bar)	uptake (ml/g)
0.0098332	338.43
0.021633	344.628
0.0353995	349.587
0.0550659	353.306
0.0747323	355.785
0.0963653	360.744
0.123898	363.223
0.165198	364.463
0.202564	368.182
0.243863	370.661
0.285163	371.901
0.326462	373.14
0.363828	375.62
0.405128	376.86
0.444461	376.86
0.481827	378.099
0.52116	378.099
0.562459	378.099
0.605725	379.339
0.643091	379.339
0.686357	379.339
0.723723	381.818
0.763056	381.818
0.810256	381.818
0.845655	383.058
0.879088	385.537
0.906621	386.777
0.928254	388.017
0.945954	391.736
0.963653	420.248
