Adsorption isotherm of Nitrogen on Ni-DHTP
DOI: 10.5012/bkcs.2010.31.6.1489
Adsorbate Nitrogen: InChIKey IJGRMHOSHXDMSA-UHFFFAOYSA-N
Temperature: 77 K
Tabular data in the source: 0
pressure (bar)	uptake (ml/g)
0.00392533	87.0166
0.00785067	333.149
0.0137387	333.149
0.017664	335.635
0.0333653	339.365
0.0431787	340.608
0.0569173	344.337
0.070656	344.337
0.0961707	344.337
0.125611	346.823
0.160939	348.066
0.20608	348.066
0.245333	349.309
0.286549	349.309
0.32384	350.552
0.367019	350.552
0.404309	350.552
0.445525	351.796
0.484779	353.039
0.524032	353.039
0.563285	353.039
0.604501	353.039
0.645717	354.282
0.681045	355.525
0.726187	354.282
0.761515	355.525
0.804693	355.525
0.843947	355.525
