Adsorption isotherm of Nitrogen on Ni-DHTP
DOI: 10.5012/bkcs.2010.31.6.1489
Adsorbate Nitrogen: InChIKey IJGRMHOSHXDMSA-UHFFFAOYSA-N
Temperature: 77 K
Tabular data in the source: 0
pressure (bar)	uptake (ml/g)
0.0137665	338.43
0.049166	343.388
0.0766989	345.868
0.0943987	348.347
0.119965	348.347
0.253697	353.306
0.310729	353.306
0.330395	353.306
0.363828	353.306
0.401194	353.306
0.442494	353.306
0.481827	353.306
0.52116	354.545
0.562459	355.785
0.603758	354.545
0.645058	355.785
0.684391	355.785
0.723723	354.545
0.763056	355.785
0.806322	355.785
0.847622	357.025
0.888921	359.504
0.910554	359.504
0.949887	365.702
0.963653	417.769
