Adsorption isotherm of Nitrogen on Ni-DHTP
DOI: 10.5012/bkcs.2010.31.6.1489
Adsorbate Nitrogen: InChIKey IJGRMHOSHXDMSA-UHFFFAOYSA-N
Temperature: 77 K
Tabular data in the source: 0
pressure (bar)	uptake (ml/g)
0.00196267	32.3204
0.00981333	292.127
0.0215893	299.586
0.0392533	303.315
0.0510293	304.558
0.070656	307.044
0.094208	308.287
0.125611	310.773
0.162901	313.26
0.202155	315.746
0.247296	316.989
0.325803	318.232
0.363093	320.718
0.400384	319.475
0.443563	321.961
0.480853	321.961
0.522069	324.448
0.563285	325.691
0.604501	328.177
0.641792	329.42
0.684971	333.149
0.724224	335.635
0.76544	339.365
0.806656	341.851
0.847872	345.58
0.904789	349.309
0.928341	353.039
0.946005	358.011
