Adsorption isotherm of Nitrogen on Ni-DHTP
DOI: 10.5012/bkcs.2010.31.6.1489
Adsorbate Nitrogen: InChIKey IJGRMHOSHXDMSA-UHFFFAOYSA-N
Temperature: 77 K
Tabular data in the source: 0
pressure (bar)	uptake (ml/g)
5.55e-17	88.2597
0.00392533	29.8343
0.011776	258.564
0.035328	262.293
0.0608427	267.265
0.076544	268.508
0.0922453	268.508
0.121685	270.994
0.162901	274.724
0.20608	277.21
0.245333	278.453
0.284587	279.696
0.327765	282.182
0.361131	283.425
0.402347	283.425
0.443563	287.155
0.484779	289.641
0.522069	289.641
0.563285	292.127
0.602539	295.856
0.645717	300.829
0.683008	304.558
0.724224	308.287
0.763477	315.746
0.804693	324.448
0.845909	335.635
0.885163	348.066
0.906752	355.525
0.926379	361.74
0.946005	370.442
0.963669	443.785
