Adsorption isotherm of Methane on Desolvated C12H13CuN5O6
DOI: 10.1021/Ic1017467
Adsorbate Methane: InChIKey VNWKTOKETHGBQD-UHFFFAOYSA-N
Temperature: 298 K
Tabular data in the source: 0
pressure (bar)	uptake (cm3(STP)/g)
0.0283427	0.975932
0.0460568	2.96641
0.0885708	4.93232
0.123999	4.89721
0.148799	6.88067
0.177142	6.85259
0.205484	5.82048
0.233827	8.80445
0.276341	8.76232
0.322398	11.7287
0.371997	11.6796
0.435768	12.6204
0.584567	16.489
0.680224	19.4063
0.793594	21.302
0.917594	23.1872
1.06994	24.0402
