Adsorption isotherm of Hydrogen on Desolvated C12H13CuN5O6
DOI: 10.1021/Ic1017467
Adsorbate Hydrogen: InChIKey UFHFLCQGNIYNRP-UHFFFAOYSA-N
Temperature: 87 K
Tabular data in the source: 0
pressure (bar)	uptake (wt%)
0.00915587	0.118959
0.0183117	0.193309
0.0305196	0.260223
0.0335715	0.312268
0.0549352	0.386617
0.0610392	0.423792
0.0824029	0.527881
0.100715	0.609665
0.112922	0.654275
0.134286	0.70632
0.201429	0.877323
0.26552	0.988848
0.332663	1.0855
0.393703	1.15985
0.473053	1.22677
0.537145	1.28625
0.601236	1.32342
0.665327	1.36059
0.735522	1.4052
0.796561	1.43494
0.869808	1.46468
0.936951	1.49442
1.00409	1.50929
1.07124	1.53903
