Adsorption isotherm of Hydrogen on Desolvated C12H13CuN5O6
DOI: 10.1021/Ic1017467
Adsorbate Hydrogen: InChIKey UFHFLCQGNIYNRP-UHFFFAOYSA-N
Temperature: 77 K
Tabular data in the source: 0
pressure (bar)	uptake (cm3(STP)/g)
0	6.76692
0.00298894	16.9206
0.00597788	22.563
0.00896681	28.2055
0.0149447	34.979
0.0209226	47.3917
0.0239115	67.6958
0.0269004	62.06
0.0328783	77.8561
0.047823	86.8953
0.0627677	98.1902
0.0807013	111.744
0.098635	121.914
0.125535	134.35
0.200259	151.351
0.263027	164.954
0.334761	172.929
0.400518	180.897
0.663544	196.979
0.73229	200.439
0.798046	201.64
0.866792	203.972
1.00129	209.761
1.06705	209.834
