Adsorption isotherm of Oxygen on Desolvated C12H13CuN5O6
DOI: 10.1021/Ic1017467
Adsorbate Oxygen: InChIKey MYMOFIZGZYHOMD-UHFFFAOYSA-N
Temperature: 77 K
Tabular data in the source: 0
pressure (bar)	uptake (cm3(STP)/g)
0	74.4361
0.00298894	199.627
0.00896681	209.784
0.0269004	217.699
0.047823	222.234
0.0747235	225.647
0.098635	230.185
0.116569	236.972
0.131513	247.139
0.143469	252.791
0.161403	259.578
0.179336	265.237
0.191292	269.762
0.212215	279.935
