Adsorption isotherm of Hydrogen on Desolvated C12H13CuN5O6
DOI: 10.1021/Ic1017467
Adsorbate Hydrogen: InChIKey UFHFLCQGNIYNRP-UHFFFAOYSA-N
Temperature: 77 K
Tabular data in the source: 0
pressure (bar)	uptake (wt%)
0.00305196	0.223048
0.0122078	0.349442
0.0183117	0.460967
0.0244157	0.565056
0.0335715	0.63197
0.0396755	0.70632
0.0457794	0.765799
0.0488313	0.825279
0.0579872	0.877323
0.115974	1.15985
0.131234	1.2119
0.201429	1.37546
0.26552	1.47955
0.332663	1.5539
0.399806	1.61338
0.46695	1.67286
0.598184	1.73978
0.668379	1.76952
0.869808	1.83643
0.930847	1.8513
1.00104	1.85874
1.06819	1.87361
