Adsorption isotherm of Nitrogen on Desolvated C12H13CuN5O6
DOI: 10.1021/Ic1017467
Adsorbate Nitrogen: InChIKey IJGRMHOSHXDMSA-UHFFFAOYSA-N
Temperature: 77 K
Tabular data in the source: 0
pressure (bar)	uptake (cm3(STP)/g)
0	54.1353
0.00597788	208.653
0.0119558	219.938
0.0567898	231.266
0.0866792	233.555
0.107602	236.962
0.143469	240.385
0.179336	240.425
0.251071	243.888
0.307861	243.952
0.355684	245.133
0.406496	246.317
0.457308	246.374
0.508119	245.302
0.558931	246.487
0.609743	245.416
0.663544	247.731
0.714356	248.915
0.762179	248.969
0.81598	251.284
0.833914	251.304
0.866792	253.596
0.890704	254.751
0.914615	255.905
0.944504	255.939
0.968416	255.965
0.989338	255.988
1.01026	257.14
