Adsorption isotherm of Carbon Dioxide on Desolvated C12H13CuN5O6
DOI: 10.1021/Ic1017467
Adsorbate Carbon Dioxide: InChIKey CURLTUGMZLYLDI-UHFFFAOYSA-N
Temperature: 298 K
Tabular data in the source: 0
pressure (bar)	uptake (cm3(STP)/g)
0.0460568	13.0066
0.063771	19.0131
0.0814851	25.0197
0.102742	29.0147
0.127542	34.0102
0.173599	43.0007
0.205484	48.9932
0.240913	54.9822
0.283427	61.9682
0.336569	67.9396
0.40034	74.9045
0.471197	82.8664
0.56331	89.8033
0.666052	96.7296
0.793594	102.627
0.938851	109.511
1.10891	114.363
