Adsorption isotherm of Carbon Dioxide on Desolvated C12H13CuN5O6
DOI: 10.1021/Ic1017467
Adsorbate Carbon Dioxide: InChIKey CURLTUGMZLYLDI-UHFFFAOYSA-N
Temperature: 273 K
Tabular data in the source: 0
pressure (bar)	uptake (cm3(STP)/g)
0.0354283	29.0814
0.0495997	34.0874
0.141713	72.1487
0.155885	80.1668
0.180684	87.1704
0.21257	94.1669
0.251541	101.156
0.315312	110.129
0.361369	116.108
0.418054	122.076
0.488911	128.03
0.56331	132.976
0.651881	136.904
0.758166	141.819
0.87508	146.723
1.01679	150.599
1.10182	153.527
