Adsorption isotherm of Methane on Desolvated C12H13CuN5O6
DOI: 10.1021/Ic1017467
Adsorbate Methane: InChIKey VNWKTOKETHGBQD-UHFFFAOYSA-N
Temperature: 273 K
Tabular data in the source: 0
pressure (bar)	uptake (cm3(STP)/g)
0.0779423	7.9549
0.109828	7.9233
0.152342	10.8932
0.173599	12.8802
0.205484	14.8566
0.244455	14.818
0.286969	18.792
0.343655	20.7438
0.403883	24.7002
0.47474	27.642
0.559767	30.5698
0.669595	34.4771
0.790052	39.3778
0.942393	43.2429
1.10891	47.094
