Adsorption isotherm of Methane on Desolvated C12H13CuN5O6
DOI: 10.1021/Ic1017467
Adsorbate Methane: InChIKey VNWKTOKETHGBQD-UHFFFAOYSA-N
Temperature: 195 K
Tabular data in the source: 0
pressure (bar)	uptake (cm3(STP)/g)
0.0106285	18.0618
0.021257	24.0753
0.0318855	33.1009
0.0460568	41.119
0.063771	49.1336
0.0814851	54.1361
0.0885708	59.1492
0.109828	64.1482
0.123999	69.1542
0.155885	73.1387
0.184227	78.1307
0.219656	85.1237
0.265712	90.0982
0.336569	95.048
0.393254	99.0079
0.467654	102.95
0.552682	106.882
0.658967	110.793
0.715652	112.745
0.779423	114.69
0.832566	116.645
0.931765	118.555
0.974279	119.517
1.09119	122.413
