Adsorption isotherm of Carbon Dioxide on Desolvated C12H13CuN5O6
DOI: 10.1021/Ic1017467
Adsorbate Carbon Dioxide: InChIKey CURLTUGMZLYLDI-UHFFFAOYSA-N
Temperature: 195 K
Tabular data in the source: 0
pressure (bar)	uptake (cm3(STP)/g)
0	43.1727
0.00354283	17.0648
0.00708566	108.427
0.0106285	139.548
0.0177142	154.601
0.021257	161.626
0.0460568	170.637
0.0708566	176.637
0.0956565	179.624
0.113371	181.615
0.152342	183.584
0.173599	185.571
0.201941	186.547
0.244455	187.509
0.290512	189.471
0.343655	189.419
0.467654	191.304
0.559767	191.212
0.658967	192.118
0.782966	191.995
0.928222	191.851
1.09474	191.686
