Adsorption isotherm of Methane on ZIF-1
DOI: 10.1002/Aic.12744
Adsorbate Methane: InChIKey VNWKTOKETHGBQD-UHFFFAOYSA-N
Temperature: 298 K
Tabular data in the source: 0
pressure (bar)	uptake (mol/l)
1.55483	0.0682953
2.36783	0.240359
3.32879	0.4296
4.06771	0.601695
4.65939	0.687647
5.17682	0.790872
5.76813	0.911307
6.28556	1.01453
6.87706	1.11773
7.32023	1.23822
7.98581	1.34139
8.50323	1.44461
9.02048	1.56508
9.61216	1.65103
10.6477	1.78851
11.3881	1.82268
12.0544	1.85687
12.7948	1.89104
13.4611	1.92523
14.6458	1.97645
15.3863	1.99337
16.0526	2.02756
16.793	2.06173
17.4593	2.09592
18.1997	2.13009
18.866	2.16428
20.0506	2.2155
20.4949	2.23255
21.2353	2.26671
23.0868	2.30039
23.8273	2.31732
24.5679	2.33424
25.2344	2.35119
25.9749	2.36811
26.7155	2.38504
27.4561	2.40196
28.1224	2.43615
28.8629	2.45308
30.0479	2.46981
30.6404	2.48679
31.3809	2.50372
32.1215	2.52064
32.788	2.53759
33.5287	2.53727
34.2693	2.55419
35.0098	2.57112
35.7504	2.58804
36.491	2.60496
37.1576	2.60467
37.8241	2.62163
38.5649	2.62131
40.0462	2.63791
