Adsorption isotherm of Methane on CUK-2
DOI: 10.1002/Aic.12744
Adsorbate Methane: InChIKey VNWKTOKETHGBQD-UHFFFAOYSA-N
Temperature: 298 K
Tabular data in the source: 0
pressure (bar)	uptake (mol/l)
1.33279	0.0511497
1.8504	0.137133
2.73747	0.309165
3.77287	0.463891
4.73383	0.653132
5.32533	0.756325
5.91683	0.859519
6.50833	0.962712
7.09983	1.06591
7.61726	1.16913
8.20876	1.27232
8.80026	1.37552
9.31769	1.47874
9.909	1.59918
10.6496	1.6161
11.3899	1.65026
12.0564	1.66722
12.7968	1.70138
13.5374	1.7183
14.2037	1.7525
14.9441	1.78666
15.6105	1.80362
16.3509	1.83778
17.0913	1.87194
17.7578	1.8889
18.4982	1.92306
19.2387	1.93998
19.9791	1.97415
20.6458	1.97386
21.3863	1.99078
22.1269	2.0077
22.7934	2.02466
23.5341	2.02434
24.2747	2.04126
25.0153	2.05818
25.7558	2.07511
26.4223	2.09206
27.1629	2.10898
27.9034	2.1259
28.6442	2.12558
29.3847	2.14251
30.0512	2.15946
30.5696	2.17648
31.2362	2.17619
31.9768	2.19311
32.7175	2.19279
33.4581	2.20972
34.1988	2.2094
34.9394	2.22632
35.6059	2.24327
36.3466	2.24295
37.0872	2.25988
37.8278	2.2768
38.5685	2.27648
39.3092	2.27616
40.05	2.27584
