Adsorption isotherm of Methane on MOF-114
DOI: 10.1002/Aic.12744
Adsorbate Methane: InChIKey VNWKTOKETHGBQD-UHFFFAOYSA-N
Temperature: 298 K
Tabular data in the source: 0
pressure (bar)	uptake (mol/l)
2.29248	0.361081
3.10474	0.60211
4.43388	0.998089
5.09836	1.2047
5.76321	1.37683
6.05859	1.46291
6.50158	1.60065
7.01882	1.72111
7.46181	1.85885
7.9048	1.99659
8.34778	2.13433
8.79077	2.27207
9.30802	2.39254
9.751	2.53028
9.97213	2.63363
10.5645	2.65062
11.3049	2.68478
11.971	2.73622
12.6374	2.77041
13.3777	2.80458
14.1179	2.85598
14.7842	2.89018
15.5244	2.94158
16.265	2.95851
16.9311	3.00994
17.6715	3.04411
18.3376	3.09554
19.078	3.12971
19.9663	3.18105
20.6328	3.198
21.3734	3.21493
22.0397	3.24912
22.7804	3.2488
23.521	3.26572
24.2616	3.28265
24.9279	3.31684
25.6684	3.33376
26.409	3.35069
27.1495	3.36761
27.8159	3.4018
28.5564	3.41873
29.297	3.43565
30.0375	3.45257
30.5559	3.46959
31.2964	3.48651
32.037	3.50343
32.7035	3.52039
33.444	3.53731
34.1848	3.53699
34.9255	3.53667
35.6661	3.55359
36.4067	3.57051
37.0731	3.58747
37.8137	3.60439
38.5543	3.62131
39.295	3.62099
39.9615	3.63795
