Adsorption isotherm of Methane on Ni(pyz)[Ni(CN)4]
DOI: 10.1002/Aic.12744
Adsorbate Methane: InChIKey VNWKTOKETHGBQD-UHFFFAOYSA-N
Temperature: 298 K
Tabular data in the source: 0
pressure (bar)	uptake (mol/l)
1.55392	0.154503
3.69387	0.929442
4.28427	1.13608
4.653	1.2911
5.02192	1.42887
5.46472	1.58385
5.83363	1.72162
6.20255	1.8594
6.64535	2.01438
7.01426	2.15215
7.30928	2.27271
7.75227	2.41045
8.12118	2.54822
8.63751	2.7549
9.0805	2.89264
9.44923	3.04765
9.96556	3.25433
10.5576	3.30579
11.2236	3.37447
11.8895	3.44315
12.6297	3.49456
13.2956	3.56323
13.9616	3.63191
14.6275	3.70059
15.3675	3.76924
16.0336	3.82068
16.1816	3.83785
16.8475	3.90653
17.5135	3.97521
18.1794	4.04389
18.9196	4.09529
19.9558	4.18105
20.6219	4.23249
21.3623	4.26665
22.0286	4.30085
22.7689	4.33501
23.4352	4.36921
24.1756	4.40337
24.9162	4.42029
25.5827	4.43725
26.3231	4.47141
27.0634	4.50558
27.7297	4.53977
28.4701	4.57394
29.1364	4.60813
29.9511	4.62502
31.7281	4.69322
32.4689	4.6929
33.2092	4.72706
33.8757	4.74402
34.6163	4.76094
35.3568	4.77786
36.0974	4.79479
36.7639	4.81174
37.5045	4.82866
38.245	4.84558
38.9113	4.87978
40.0221	4.91378
