Adsorption isotherm of Methane on MOF-2
DOI: 10.1002/Aic.12744
Adsorbate Methane: InChIKey VNWKTOKETHGBQD-UHFFFAOYSA-N
Temperature: 298 K
Tabular data in the source: 0
pressure (bar)	uptake (mol/l)
2.21767	0.430079
2.95604	0.653898
4.21111	1.04991
4.72763	1.23934
5.17061	1.37708
5.53953	1.51485
5.98233	1.66984
6.35124	1.80761
6.79423	1.94535
7.23722	2.08309
7.60595	2.2381
8.04893	2.37584
8.49192	2.51358
8.86065	2.66859
9.30364	2.80633
9.74662	2.94407
9.96775	3.04743
10.4857	3.09893
11.1518	3.15037
11.8919	3.21901
12.558	3.27045
13.2241	3.32189
13.9641	3.39053
14.6302	3.44197
15.2962	3.51065
16.0364	3.56205
16.7023	3.63073
17.3684	3.68217
18.0344	3.75085
18.7746	3.80225
20.107	3.88788
20.625	3.93939
21.3655	3.95631
22.0318	3.9905
22.7722	4.02467
23.4385	4.05886
24.1791	4.07578
24.9195	4.10995
25.586	4.1269
26.3263	4.16107
26.9926	4.19526
27.733	4.22943
28.4736	4.24635
29.1399	4.28054
30.0284	4.31464
30.4727	4.33169
31.1392	4.34865
31.8797	4.36557
32.5462	4.38252
33.2868	4.39945
34.0273	4.41637
34.7679	4.43329
35.5086	4.43297
36.175	4.46717
36.9155	4.48409
37.6561	4.50101
38.3966	4.51793
39.0631	4.53489
40.0259	4.55171
