Adsorption isotherm of Methane on MOF-604
DOI: 10.1002/Aic.12744
Adsorbate Methane: InChIKey VNWKTOKETHGBQD-UHFFFAOYSA-N
Temperature: 298 K
Tabular data in the source: 0
pressure (bar)	uptake (mol/l)
1.70207	0.154439
2.29302	0.309356
3.32769	0.533048
3.84512	0.636274
4.43644	0.756708
4.87979	0.859966
5.39703	0.980432
5.91428	1.1009
6.35745	1.2214
6.87487	1.32462
7.39212	1.44509
7.90936	1.56556
8.42679	1.66878
8.94385	1.80649
9.46109	1.92696
9.97815	2.06466
10.5704	2.09889
11.2367	2.13309
11.9769	2.18449
12.7173	2.21866
13.3834	2.27009
14.1238	2.30426
14.7901	2.33845
15.5304	2.37262
16.1966	2.42405
16.9368	2.47546
17.6031	2.50965
18.3433	2.56106
19.0096	2.59525
19.972	2.64656
20.6385	2.66352
21.379	2.68044
22.1196	2.69736
22.7859	2.73156
23.5265	2.74848
24.267	2.7654
24.9335	2.78236
25.6741	2.79928
26.4145	2.83344
27.0809	2.8504
27.8215	2.86732
28.5621	2.88424
29.2284	2.91844
29.9689	2.93536
30.5614	2.95234
31.3021	2.95202
31.6725	2.95187
32.413	2.96879
33.1536	2.98571
33.8943	2.98539
34.5608	3.00234
35.3014	3.01927
36.0419	3.03619
36.7825	3.05311
37.449	3.07007
38.1897	3.06975
38.9303	3.08667
40.0411	3.12067
