Adsorption isotherm of Methane on MIL-102
DOI: 10.1002/Aic.12744
Adsorbate Methane: InChIKey VNWKTOKETHGBQD-UHFFFAOYSA-N
Temperature: 298 K
Tabular data in the source: 0
pressure (bar)	uptake (mol/l)
2.36856	0.171393
3.03431	0.257313
3.626	0.343265
4.29175	0.429185
4.88326	0.532378
5.54901	0.618298
6.14088	0.687008
6.80645	0.79017
7.39814	0.876121
8.06389	0.962041
8.65558	1.04799
9.32133	1.13391
9.98691	1.23707
10.7273	1.27124
11.5419	1.28813
12.2827	1.28781
13.023	1.32197
13.6895	1.33893
14.4301	1.35585
15.1707	1.37277
15.837	1.40697
16.5775	1.42389
17.3181	1.44081
17.9844	1.47501
18.725	1.49193
19.4655	1.50885
20.0579	1.52584
20.6503	1.54282
21.3911	1.5425
22.1316	1.55943
22.8724	1.55911
23.613	1.57603
24.3537	1.57571
25.0202	1.59266
25.7609	1.59234
26.8719	1.60911
27.6126	1.60879
28.3533	1.60847
30.0569	1.62498
30.5752	1.64199
31.316	1.64167
32.0567	1.64135
32.7974	1.64104
33.538	1.65796
34.2788	1.65764
35.0195	1.65732
35.7602	1.657
36.5008	1.67392
37.2415	1.6736
37.9823	1.67328
38.6488	1.69024
39.3895	1.68992
39.9823	1.67242
