Adsorption isotherm of Methane on PCN-13
DOI: 10.1002/Aic.12744
Adsorbate Methane: InChIKey VNWKTOKETHGBQD-UHFFFAOYSA-N
Temperature: 298 K
Tabular data in the source: 0
pressure (bar)	uptake (mol/l)
2.66121	0.516094
3.25198	0.688253
3.99035	0.912073
4.95021	1.20476
5.98397	1.51466
6.42714	1.63516
6.86995	1.79014
7.23904	1.91067
7.68203	2.04841
8.12501	2.18615
8.568	2.32389
9.01099	2.46163
9.45397	2.59937
9.97067	2.77156
10.5629	2.80579
11.229	2.85723
11.9692	2.90863
12.6353	2.96007
13.0055	2.97715
13.7459	3.01132
14.412	3.06275
15.1522	3.11416
15.8184	3.1656
16.5586	3.217
17.2249	3.2512
17.9652	3.28536
18.6314	3.3368
19.2975	3.38823
19.9634	3.45691
20.6301	3.45662
21.3705	3.49079
22.037	3.50774
22.8514	3.54187
23.592	3.5588
24.3325	3.57572
24.999	3.59267
25.7396	3.6096
26.48	3.64376
27.1464	3.66071
27.8868	3.69488
28.6274	3.7118
29.2937	3.74599
29.9602	3.76295
30.5526	3.77993
31.2932	3.79686
31.5893	3.81397
32.33	3.81365
32.7002	3.83073
33.4409	3.83041
34.1815	3.84734
34.848	3.86429
35.5884	3.89845
36.3291	3.89813
37.0695	3.9323
37.736	3.94925
38.4765	3.96617
39.2171	3.9831
39.9577	4.00002
