Adsorption isotherm of Methane on Zn(L3)(L9)2
DOI: 10.1002/Aic.12744
Adsorbate Methane: InChIKey VNWKTOKETHGBQD-UHFFFAOYSA-N
Temperature: 298 K
Tabular data in the source: 0
pressure (bar)	uptake (mol/l)
1.84949	0.223341
3.03139	0.533176
3.77068	0.670789
4.28792	0.791255
4.73091	0.928995
5.24815	1.04946
5.7654	1.16993
6.20838	1.30767
6.72581	1.41089
7.1688	1.54863
7.68604	1.6691
8.20328	1.78957
8.64627	1.92731
9.16352	2.04777
9.60668	2.16827
9.97614	2.25432
10.568	2.32303
11.3084	2.35719
11.9745	2.40863
12.7149	2.4428
13.381	2.49423
14.1214	2.5284
14.7875	2.57983
15.5279	2.614
16.1942	2.64819
16.9346	2.68236
17.6748	2.73376
18.3409	2.7852
19.0072	2.81939
19.9696	2.8707
20.6359	2.9049
21.3765	2.92182
22.0428	2.95602
22.7834	2.97294
23.5239	2.98986
24.1902	3.02406
24.9308	3.04098
25.6712	3.07514
26.3376	3.0921
27.078	3.12626
27.8184	3.16042
28.4849	3.17738
29.2253	3.21154
29.9657	3.2457
30.5582	3.24545
31.2988	3.26237
32.0396	3.26205
32.7801	3.27897
33.4466	3.29593
34.1872	3.31285
34.9277	3.32977
35.6683	3.34669
36.3348	3.36365
37.0753	3.38057
37.8159	3.39749
38.5565	3.41442
39.2229	3.43137
40.0378	3.43102
