Adsorption isotherm of Methane on MOF-116
DOI: 10.1002/Aic.12744
Adsorbate Methane: InChIKey VNWKTOKETHGBQD-UHFFFAOYSA-N
Temperature: 298 K
Tabular data in the source: 0
pressure (bar)	uptake (mol/l)
1.18483	0.0339721
1.84876	0.292307
2.43862	0.550673
2.8816	0.688413
3.25015	0.860668
3.69314	0.998408
4.06187	1.15342
4.57802	1.37734
4.94675	1.53235
5.31566	1.67012
5.9057	1.91125
6.27461	2.04902
6.71742	2.204
7.08633	2.34177
7.30728	2.46237
7.67601	2.61738
8.04492	2.75515
8.41365	2.91017
8.56125	2.96183
8.92998	3.11684
9.37297	3.25458
9.7417	3.40959
9.96246	3.54743
10.4804	3.59893
11.1464	3.66761
11.7379	3.7708
12.1818	3.82234
12.7735	3.90829
13.4392	3.99421
14.105	4.08013
14.7709	4.14881
15.3626	4.23476
16.0284	4.32068
16.768	4.42381
17.4338	4.50973
18.0254	4.59568
18.6912	4.6816
19.357	4.76752
19.9488	4.83623
21.799	4.9906
22.4652	5.04204
23.2054	5.09345
23.8715	5.14488
24.6115	5.21353
25.1297	5.24779
25.796	5.28198
26.536	5.35063
27.2021	5.40207
27.8682	5.45351
28.6084	5.50491
29.2744	5.57359
30.0147	5.60775
30.5327	5.65925
31.2731	5.69342
31.9394	5.72761
32.6798	5.76178
33.3459	5.81321
34.0861	5.86462
34.7524	5.89881
35.4926	5.95022
36.233	5.98438
36.9735	6.0013
37.6397	6.05274
38.38	6.08691
39.0462	6.13834
40.0088	6.17241
