Adsorption isotherm of Carbon Dioxide on Cu-BTTri
DOI: 10.1016/j.micromeso.2013.02.036
Adsorbate Carbon Dioxide: InChIKey CURLTUGMZLYLDI-UHFFFAOYSA-N
Temperature: 293 K
Tabular data in the source: 0
pressure (bar)	uptake (mmol/g)
0.0130507	0.0026867
0.0267801	0.0670431
0.055955	0.161433
0.104008	0.33305
0.205262	0.654832
0.306516	0.963743
0.402622	1.23833
0.50216	1.51721
0.601698	1.77892
0.697803	2.02348
0.800774	2.26803
0.898595	2.51259
0.994701	2.74427
1.0479	2.84724
1.09939	2.96737
1.14572	3.07892
