Adsorption isotherm of Carbon Dioxide on Pip-CuBTTri
DOI: 10.1016/j.micromeso.2013.02.036
Adsorbate Carbon Dioxide: InChIKey CURLTUGMZLYLDI-UHFFFAOYSA-N
Temperature: 293 K
Tabular data in the source: 0
pressure (bar)	uptake (mmol/g)
0.00618604	0.015558
0.0147669	0.187175
0.0199154	0.281565
0.0319286	0.401697
0.0645359	0.530409
0.122886	0.667703
0.182952	0.770674
0.285922	0.912258
0.409486	1.05813
0.522754	1.19543
0.696087	1.37133
0.811071	1.50005
0.924338	1.6116
1.04275	1.72315
1.09939	1.78321
