Adsorption isotherm of Carbon Dioxide on Cu-BTTri
DOI: 10.1016/j.micromeso.2013.02.036
Adsorbate Carbon Dioxide: InChIKey CURLTUGMZLYLDI-UHFFFAOYSA-N
Temperature: 293 K
Tabular data in the source: 0
pressure (bar)	uptake (mmol/cm3)
0.0118127	0.0176437
0.0506859	0.13032
0.10139	0.267644
0.145334	0.387362
0.199418	0.521165
0.304207	0.75708
0.405616	0.97539
0.510404	1.19722
0.605052	1.40145
0.70477	1.60215
0.804489	1.79933
0.904207	1.98595
1.00562	2.17257
1.10364	2.34511
1.15435	2.42962
