Adsorption isotherm of Carbon Dioxide on Pip-CuBTTri
DOI: 10.1016/j.micromeso.2013.02.036
Adsorbate Carbon Dioxide: InChIKey CURLTUGMZLYLDI-UHFFFAOYSA-N
Temperature: 293 K
Tabular data in the source: 0
pressure (bar)	uptake (mmol/cm3)
0.00505213	0.00355924
0.00674227	0.133841
0.0101226	0.214827
0.0118127	0.309897
0.0287141	0.436658
0.0574465	0.570461
0.111531	0.711306
0.285616	1.00356
0.349841	1.10215
0.410686	1.18314
0.525616	1.3099
0.6997	1.50356
0.82308	1.65145
0.929559	1.7606
1.04449	1.89088
1.10364	1.95778
