Adsorption isotherm of Carbon Dioxide on C32H24Cd2N6O12
DOI: 10.1021/Ja904363b
Adsorbate Carbon Dioxide: InChIKey CURLTUGMZLYLDI-UHFFFAOYSA-N
Temperature: 195 K
Tabular data in the source: 0
pressure (bar)	uptake (molecules/unitcell)
0.00727281	0.0294145
0.0254548	0.0143898
0.210911	0.0264519
0.261821	0.0404714
0.312731	0.0397307
0.418186	0.0381965
0.458187	0.0523747
0.490914	0.0814189
0.534551	0.0955442
0.567279	0.095068
0.614552	0.123901
0.676371	0.152522
0.694553	0.181777
0.734553	0.210716
0.752736	0.225211
0.774554	0.239654
0.796372	0.254097
0.814554	0.283353
0.832736	0.312608
0.854555	0.341811
0.872737	0.341547
0.894555	0.38551
0.92001	0.44418
0.934556	0.517769
0.945465	3.3368
0.956374	3.43996
0.960011	3.49895
0.963647	3.54318
0.978193	3.61677
0.992738	3.70511
1.00365	3.764
