Adsorption isotherm of Water on C32H24Cd2N6O12
DOI: 10.1021/Ja904363b
Adsorbate Water: InChIKey XLYOFNOQVPJJNP-UHFFFAOYSA-N
Temperature: 298 K
Tabular data in the source: 0
pressure (bar)	uptake (ang3(STP)/unit cell)
1.82e-06	4.39554
5.46e-06	13.1866
0.000132364	19.7756
0.000632252	27.4504
0.00137867	30.721
0.00237436	36.1807
0.0032445	38.3481
0.00423927	41.61
0.00473688	43.7904
0.00573211	48.1512
0.00623064	52.5293
0.00710715	70.0811
0.00723633	82.1645
0.00748968	94.2435
0.00811602	107.408
0.00898707	111.774
0.00973304	113.945
0.0107278	117.207
0.0129648	121.525
0.0143316	123.675
0.0169416	129.078
0.0183085	131.228
0.0196753	133.378
0.0211663	135.523
0.0224095	138.777
0.0239009	142.021
0.0250199	145.279
0.02589	147.446
0.026389	152.923
0.0266551	195.771
0.0268921	168.29
0.0268957	177.081
0.0269121	216.641
0.0270126	159.495
0.0281643	241.872
0.0291627	253.925
0.030284	262.677
0.0311568	271.438
