Adsorption isotherm of Methanol on C32H24Cd2N6O12
DOI: 10.1021/Ja904363b
Adsorbate Methanol: InChIKey OKKJLVBELUTLKV-UHFFFAOYSA-N
Temperature: 298 K
Tabular data in the source: 0
pressure (bar)	uptake (ang3(STP)/unit cell)
0.00206891	31.9853
0.00410844	50.7353
0.00946067	61.7647
0.0161277	65.0735
0.0188063	71.6912
0.0208262	81.6176
0.0228853	109.191
0.0242662	131.25
0.0249714	148.897
0.0303236	159.926
0.0336779	170.956
0.0430309	184.191
0.0530351	190.809
0.0623733	197.426
0.0710407	201.838
0.0883706	208.456
0.097038	212.868
0.105037	216.176
0.115031	218.382
0.122364	221.691
0.130361	223.897
0.13836	227.206
0.148354	229.412
0.155687	232.721
0.16302	236.029
0.171022	240.441
