Adsorption isotherm of Carbon Dioxide on C32H24Cd2N6O12
DOI: 10.1021/Ja904363b
Adsorbate Carbon Dioxide: InChIKey CURLTUGMZLYLDI-UHFFFAOYSA-N
Temperature: 195 K
Tabular data in the source: 0
pressure (bar)	uptake (molecules/unitcell)
0.013219	0.013986
0.0627901	0.013986
0.0793139	0.013986
0.13219	0.027972
0.165237	0.027972
0.185066	0.027972
0.218113	0.041958
0.261075	0.041958
0.317255	0.041958
0.366827	0.041958
0.413093	0.0559441
0.472578	0.0559441
0.51554	0.0699301
0.568416	0.0839161
0.667558	0.0979021
0.723739	0.0979021
0.77331	0.0979021
0.822881	0.125874
0.872453	0.153846
0.925328	0.167832
0.978204	0.223776
1.00464	4.01399
