Adsorption isotherm of Water on C32H24Cd2N6O12
DOI: 10.1021/Ja904363b
Adsorbate Water: InChIKey XLYOFNOQVPJJNP-UHFFFAOYSA-N
Temperature: 298 K
Tabular data in the source: 0
pressure (bar)	uptake (molecules/unitcell)
3.47e-18	0.212121
0.000226022	0.795455
0.000791076	1.2197
0.00146914	1.48485
0.00237323	1.64394
0.00327731	1.80303
0.0041814	1.85606
0.00485946	2.01515
0.00565054	2.22727
0.0063286	2.49242
0.00678065	3.02273
0.00711968	3.5
0.0073457	4.08333
0.00757172	4.56061
0.00791076	4.98485
0.00881484	5.25
0.00971893	5.40909
0.010736	5.51515
0.0117531	5.56818
0.0127702	5.7803
0.0143524	5.93939
0.0183077	6.31061
0.0194379	6.36364
0.021133	6.4697
0.0223761	6.62879
0.0239583	6.73485
0.0248624	6.89394
0.0257665	7.10606
0.0265575	7.31818
0.0266705	8.06061
0.0267836	9.49242
0.0268966	7.68939
0.0271226	11.2955
0.0283657	11.6667
0.0291568	12.303
0.0301739	12.6742
0.031304	13.0985
