Adsorption isotherm of Nitrogen on C32H24Cd2N6O12
DOI: 10.1021/Ja904363b
Adsorbate Nitrogen: InChIKey IJGRMHOSHXDMSA-UHFFFAOYSA-N
Temperature: 77 K
Tabular data in the source: 0
pressure (bar)	uptake (molecules/unitcell)
0.0316456	0.027972
0.18038	0.027972
0.594937	0.0839161
0.689874	0.0979021
0.838608	0.13986
0.889241	0.167832
0.930381	0.223776
0.965191	0.475524
