Adsorption isotherm of Methanol on C32H24Cd2N6O12
DOI: 10.1021/Ja904363b
Adsorbate Methanol: InChIKey OKKJLVBELUTLKV-UHFFFAOYSA-N
Temperature: 298 K
Tabular data in the source: 0
pressure (bar)	uptake (molecules/unitcell)
0.00217506	0.306621
0.00285598	0.828427
0.00501491	1.28856
0.0108753	1.53311
0.0174876	1.62401
0.0211472	1.80755
0.0218539	2.08374
0.0232577	2.72822
0.0254037	3.31116
0.0268269	3.77143
0.0312125	4.04694
0.0348623	4.32259
0.0429236	4.62814
0.0532019	4.84118
0.0627541	4.96225
0.0723064	5.08332
0.0803935	5.14325
0.0892067	5.29515
0.0972905	5.38578
0.105381	5.41501
0.113465	5.50564
0.122288	5.56544
0.130372	5.65607
0.139194	5.71586
0.147285	5.74509
0.155369	5.83572
0.161248	5.89606
0.170062	6.04796
