Adsorption isotherm of Carbon Dioxide on C32H24Cd2N6O12
DOI: 10.1021/Ja904363b
Adsorbate Carbon Dioxide: InChIKey CURLTUGMZLYLDI-UHFFFAOYSA-N
Temperature: 195 K
Tabular data in the source: 0
pressure (bar)	uptake (molecules/unitcell)
0.218184	0.0115859
0.367277	0.0389372
0.563643	0.0656007
0.610916	0.0796731
0.672735	0.0935338
0.723644	0.107553
0.770918	0.106866
0.821827	0.106125
0.8691	0.134957
0.92001	0.163737
0.97092	0.192517
0.996375	3.9855
