Adsorption isotherm of Oxygen on C32H24Cd2N6O12
DOI: 10.1021/Ja904363b
Adsorbate Oxygen: InChIKey MYMOFIZGZYHOMD-UHFFFAOYSA-N
Temperature: 77 K
Tabular data in the source: 0
pressure (bar)	uptake (molecules/unitcell)
0.0166908	0.027972
0.0462207	0.041958
0.05585	0.041958
0.0866638	0.0559441
0.105922	0.0839161
0.135452	0.0839161
0.165624	0.125874
0.175254	0.153846
0.186167	0.153846
0.19387	0.20979
