Adsorption isotherm of Cadmium(II) Ion on Lentil Husk
DOI: 10.1016/j.psep.2016.11.025
Article source: Figure 3a
Adsorbate Cadmium(II) Ion: InChIKey WLZRMCYVCSSEQC-UHFFFAOYSA-N
Kind: experiment
Temperature: 303 K
Tabular data in the source: 0
pressure (bar)	uptake (g/l)
1.01325	9.644
1.01325	23.625
1.01325	46.11
1.01325	65.998
1.01325	82.67
1.01325	94.906
1.01325	97.661
