Adsorption isotherm of Hydrogen on C26H8Cu2N2O12
DOI: 10.1002/chem.201002135
Adsorbate Hydrogen: InChIKey UFHFLCQGNIYNRP-UHFFFAOYSA-N
Temperature: 298 K
Tabular data in the source: 0
pressure (bar)	uptake (wt%)
5.28875	0.116959
10.5775	0.187135
15.5015	0.280702
20.6079	0.374269
25.5319	0.467836
30.4559	0.561404
35.3799	0.608187
40.304	0.701754
45.228	0.77193
50.6991	0.818713
55.2584	0.912281
60.3647	0.959064
