Adsorption isotherm of Hydrogen on C26H8Cu2N2O12
DOI: 10.1002/chem.201002135
Adsorbate Hydrogen: InChIKey UFHFLCQGNIYNRP-UHFFFAOYSA-N
Temperature: 77 K
Tabular data in the source: 0
pressure (bar)	uptake (cm3(STP)/g)
0.01403	21.0235
0.0336205	35.7196
0.0587936	50.4042
0.0867507	62.9776
0.100737	71.3696
0.153845	92.3119
0.198557	106.956
0.257226	121.571
0.304715	131.998
0.354995	142.42
0.399685	150.749
0.45554	159.054
0.508612	169.47
0.561669	175.675
0.609143	181.892
0.65661	186.004
0.709674	194.315
0.757141	198.427
0.81578	204.621
0.857672	210.85
0.910721	214.95
0.958181	216.957
1.00565	223.174
