Adsorption isotherm of Hydrogen on C26H8Cu2N2O12
DOI: 10.1002/chem.201002135
Adsorbate Hydrogen: InChIKey UFHFLCQGNIYNRP-UHFFFAOYSA-N
Temperature: 77 K
Tabular data in the source: 0
pressure (bar)	uptake (wt%)
0.364742	0.467836
0.729483	1.23977
1.2766	2.24561
3.28267	2.80702
5.47112	3.4386
7.65957	3.69591
10.0304	3.97661
12.9483	4.16374
15.5015	4.37427
20.2432	4.60819
24.9848	4.79532
30.4559	4.95906
33.3739	5.00585
35.7447	5.07602
40.304	5.16959
45.228	5.26316
50.5167	5.35673
55.2584	5.47368
60.1824	5.54386
