Adsorption isotherm of Methane on C26H8Cu2N2O12
DOI: 10.1002/chem.201002135
Adsorbate Methane: InChIKey VNWKTOKETHGBQD-UHFFFAOYSA-N
Temperature: 298 K
Tabular data in the source: 0
pressure (bar)	uptake (cm3(STP)/g)
0.0659481	2.51288
0.114528	2.45061
0.163117	3.68703
0.211715	6.22215
0.267235	6.15099
0.312354	7.39186
0.367874	7.3207
0.412993	8.56157
0.468523	9.7891
0.517103	9.72683
0.562213	9.66901
0.617733	9.59785
0.666322	10.8343
0.718381	12.0663
0.7635	13.3071
0.815541	11.9417
0.867609	14.4724
0.923138	15.6999
0.975197	16.9319
