Adsorption isotherm of Oxygen on C26H8Cu2N2O12
DOI: 10.1002/chem.201002135
Adsorbate Oxygen: InChIKey MYMOFIZGZYHOMD-UHFFFAOYSA-N
Temperature: 77 K
Tabular data in the source: 0
pressure (bar)	uptake (cm3(STP)/g)
0.00511984	667.358
0.00799928	692.615
0.0136553	713.656
0.0221101	736.796
0.033334	753.615
0.0417447	764.124
0.0529392	772.522
0.0641265	778.814
0.080911	789.306
0.0948969	797.698
0.161969	820.716
0.189904	826.974
