Adsorption isotherm of Methane on C26H8Cu2N2O12
DOI: 10.1002/chem.201002135
Adsorbate Methane: InChIKey VNWKTOKETHGBQD-UHFFFAOYSA-N
Temperature: 195 K
Tabular data in the source: 0
pressure (bar)	uptake (cm3(STP)/g)
0.0105001	12.9736
0.0313833	22.0377
0.0591793	27.1969
0.0765474	29.772
0.107831	37.5241
0.170364	47.8336
0.225965	59.4506
0.274599	67.1805
0.291985	72.353
0.35102	78.7709
0.399663	87.7994
0.451758	94.2262
0.503863	101.952
0.552488	108.383
0.611532	116.099
0.660175	125.128
0.71574	131.55
0.771305	137.972
0.812981	143.114
0.865067	148.242
0.920623	153.365
0.958839	159.81
1.01439	164.934
