Adsorption isotherm of Hydrogen on C26H8Cu2N2O12
DOI: 10.1002/chem.201002135
Adsorbate Hydrogen: InChIKey UFHFLCQGNIYNRP-UHFFFAOYSA-N
Temperature: 87 K
Tabular data in the source: 0
pressure (bar)	uptake (cm3(STP)/g)
0.0279571	12.5735
0.0531229	25.1528
0.0810579	31.4105
0.103418	39.7851
0.156497	52.3064
0.201187	60.6346
0.257042	68.9396
0.310106	77.2504
0.35758	83.4676
0.407853	91.7842
0.455327	98.0013
0.508392	106.312
0.567038	114.611
0.606131	118.741
0.656389	122.847
0.709439	126.947
0.756906	131.059
0.809955	135.159
0.860213	139.265
0.910479	145.477
0.963513	145.366
1.01099	151.584
