Adsorption isotherm of Methane on C26H8Cu2N2O12
DOI: 10.1002/chem.201002135
Adsorbate Methane: InChIKey VNWKTOKETHGBQD-UHFFFAOYSA-N
Temperature: 298 K
Tabular data in the source: 0
pressure (bar)	uptake (wt%)
1.35048	0.264621
3.85852	0.582556
6.55949	0.794966
9.45338	1.00746
12.3473	1.14075
14.8553	1.27386
18.328	1.43381
22.7653	1.56777
27.3955	1.67542
30.4823	1.75599
33.7621	1.78383
36.463	1.81142
42.2508	1.89318
45.5305	1.92103
48.2315	1.92221
51.5113	1.95006
54.4051	1.97774
57.492	2.0055
60.5788	1.98045
