Adsorption isotherm of Hydrogen on C26H8Cu2N2O12
DOI: 10.1002/chem.201002135
Adsorbate Hydrogen: InChIKey UFHFLCQGNIYNRP-UHFFFAOYSA-N
Temperature: 77 K
Tabular data in the source: 0
pressure (bar)	uptake (wt%)
0.547112	0.842105
1.45897	2.2924
3.1003	2.83041
5.47112	3.62573
7.84195	4.02339
10.3951	4.42105
15.3191	4.95906
20.4255	5.40351
24.9848	5.75439
35.5623	6.45614
40.304	6.76023
45.228	7.06433
50.3343	7.34503
55.6231	7.62573
60.3647	7.85965
