Adsorption isotherm of Nitrogen on C26H8Cu2N2O12
DOI: 10.1002/chem.201002135
Adsorbate Nitrogen: InChIKey IJGRMHOSHXDMSA-UHFFFAOYSA-N
Temperature: 77 K
Tabular data in the source: 0
pressure (bar)	uptake (cm3(STP)/g)
0.00384171	301.045
0.00430448	433.675
0.010056	482.084
0.0129355	507.342
0.0269875	534.681
0.0409807	545.178
0.0633552	557.763
0.085715	566.138
0.108067	572.407
0.144376	578.647
0.194649	586.964
0.242109	588.971
0.281209	595.205
0.309129	597.252
0.412444	607.564
0.504601	620.004
0.563219	619.882
0.607909	628.211
0.65816	630.211
0.716792	634.3
0.769826	634.19
0.820077	636.191
0.870321	636.086
0.920571	638.087
