Adsorption isotherm of Methane on C26H8Cu2N2O12
DOI: 10.1002/chem.201002135
Adsorbate Methane: InChIKey VNWKTOKETHGBQD-UHFFFAOYSA-N
Temperature: 298 K
Tabular data in the source: 0
pressure (bar)	uptake (wt%)
1.35048	0.317426
4.24437	0.661934
6.75241	0.900661
10.8039	1.16647
15.4341	1.40613
16.9775	1.45962
18.5209	1.5395
21.2219	1.6463
24.3087	1.80608
30.6752	1.94089
36.463	2.07545
42.4437	2.18369
46.6881	2.23837
48.4244	2.26553
54.4051	2.34737
60.5788	2.40289
