Adsorption isotherm of Carbon Dioxide on C26H8Cu2N2O12
DOI: 10.1002/chem.201002135
Adsorbate Carbon Dioxide: InChIKey CURLTUGMZLYLDI-UHFFFAOYSA-N
Temperature: 298 K
Tabular data in the source: 0
pressure (bar)	uptake (wt%)
0.385852	0.422612
1.15756	1.24143
3.47267	2.98503
6.17363	4.41196
8.10289	5.28409
12.5402	6.15733
18.7138	6.84652
24.3087	7.21862
30.2894	7.51168
36.0772	7.77825
42.0579	7.9921
48.0386	8.20596
