Adsorption isotherm of Carbon Dioxide on C26H8Cu2N2O12
DOI: 10.1002/chem.201002135
Adsorbate Carbon Dioxide: InChIKey CURLTUGMZLYLDI-UHFFFAOYSA-N
Temperature: 273 K
Tabular data in the source: 0
pressure (bar)	uptake (cm3(STP)/g)
0.0312931	9.0508
0.0660382	15.4998
0.0973133	21.9532
0.159827	29.6653
0.211923	36.092
0.260539	41.2245
0.316104	47.6468
0.364729	54.078
0.413354	60.5092
0.455012	63.0532
0.514056	70.7697
0.555732	75.9111
0.614749	79.7315
0.718922	89.9876
0.757137	96.4322
0.816145	98.9539
0.871701	104.078
0.965454	113.048
1.01407	118.181
