Adsorption isotherm of Methane on C26H8Cu2N2O12
DOI: 10.1002/chem.201002135
Adsorbate Methane: InChIKey VNWKTOKETHGBQD-UHFFFAOYSA-N
Temperature: 273 K
Tabular data in the source: 0
pressure (bar)	uptake (cm3(STP)/g)
0.118007	3.74485
0.215194	7.51639
0.267244	7.44968
0.308884	7.3963
0.364422	9.92252
0.419952	11.1501
0.468523	9.7891
0.565701	12.2619
0.666349	14.7303
0.714929	14.6681
0.822508	15.8289
0.874567	17.0609
0.926617	16.9942
0.971754	20.8324
1.00993	22.0822
