Adsorption isotherm of Carbon Dioxide on C26H8Cu2N2O12
DOI: 10.1002/chem.201002135
Adsorbate Carbon Dioxide: InChIKey CURLTUGMZLYLDI-UHFFFAOYSA-N
Temperature: 298 K
Tabular data in the source: 0
pressure (bar)	uptake (wt%)
0.385852	0.343404
1.35048	1.21512
1.92926	1.61141
2.31511	1.87561
2.50804	2.13972
2.89389	2.40391
3.66559	2.95871
4.63023	3.46078
5.209	3.72506
6.17363	4.30635
9.26045	5.2054
10.2251	5.44344
11.3826	5.65517
12.3473	5.91962
16.2058	6.23815
18.7138	6.50328
24.3087	6.79618
25.8521	6.79685
27.5884	6.87683
31.6399	6.98422
33.5691	7.01147
37.6206	7.09246
39.5498	7.09331
42.2508	7.14731
43.7942	7.14798
45.7235	7.14883
47.6527	7.17608
48.4244	7.20283
