Adsorption isotherm of Oxygen on C26H8Cu2N2O12
DOI: 10.1002/chem.201002135
Adsorbate Oxygen: InChIKey MYMOFIZGZYHOMD-UHFFFAOYSA-N
Temperature: 87 K
Tabular data in the source: 0
pressure (bar)	uptake (cm3(STP)/g)
0.00752917	557.879
0.0103719	572.61
0.0132293	591.551
0.0160794	608.388
0.0161528	629.44
0.0357434	644.136
0.049766	663.054
0.0693418	673.54
0.0805364	681.938
0.102896	690.313
0.136436	702.874
0.183925	713.302
0.236989	721.613
0.29006	732.029
0.343117	738.234
0.390599	746.557
0.438088	756.985
0.488338	758.985
0.541388	763.086
0.586063	767.203
0.639098	767.093
0.703313	771.17
