Adsorption isotherm of Hydrogen on C26H8Cu2N2O12
DOI: 10.1002/chem.201002135
Adsorbate Hydrogen: InChIKey UFHFLCQGNIYNRP-UHFFFAOYSA-N
Temperature: 298 K
Tabular data in the source: 0
pressure (bar)	uptake (wt%)
5.83587	0.0701754
8.20669	0.0935673
10.5775	0.116959
15.8663	0.163743
20.7903	0.210526
25.5319	0.210526
30.2736	0.25731
35.3799	0.304094
40.6687	0.327485
45.228	0.350877
50.5167	0.350877
55.4407	0.374269
60.1824	0.397661
