Adsorption isotherm of Carbon Dioxide on C26H8Cu2N2O12
DOI: 10.1002/chem.201002135
Adsorbate Carbon Dioxide: InChIKey CURLTUGMZLYLDI-UHFFFAOYSA-N
Temperature: 195 K
Tabular data in the source: 0
pressure (bar)	uptake (cm3(STP)/g)
0.000162234	23.3764
0.00379447	46.7484
0.00390263	62.3327
0.0109959	84.4015
0.0181341	112.964
0.0288055	150.612
0.039531	196.053
0.0433074	240.204
0.0574849	283.043
0.0680752	309.004
0.0751233	324.579
0.0890845	336.249
0.106516	347.915
0.158728	371.225
0.183081	380.285
0.235203	390.608
0.36024	407.33
0.415797	412.454
0.460934	416.292
0.509559	422.724
0.613695	427.785
0.658841	432.922
0.707439	435.457
0.811584	441.817
0.867122	444.343
0.964318	449.413
1.00945	451.953
