Adsorption isotherm of Carbon Dioxide on C26H8Cu2N2O12
DOI: 10.1002/chem.201002135
Adsorbate Carbon Dioxide: InChIKey CURLTUGMZLYLDI-UHFFFAOYSA-N
Temperature: 298 K
Tabular data in the source: 0
pressure (bar)	uptake (cm3(STP)/g)
0.145857	16.6962
0.208335	19.2135
0.309047	30.7727
0.371543	35.8874
0.409722	37.1372
0.458329	40.971
0.506936	44.8048
0.61456	52.4591
0.715244	60.1222
0.815928	67.7854
0.913125	72.8556
0.947852	76.7072
