Adsorption isotherm of Carbon Dioxide on Mg-MOF-74
DOI: 10.1021/Jp311118x
Adsorbate Carbon Dioxide: InChIKey CURLTUGMZLYLDI-UHFFFAOYSA-N
Temperature: 298 K
Tabular data in the source: 0
pressure (bar)	uptake (molecules/unitcell)
0.0413739	4.95903
0.0973067	5.41349
0.195189	5.72811
0.307055	6.11265
0.408433	6.28744
0.499324	6.46223
0.590214	6.84677
0.785979	7.33618
0.999223	7.82559
1.19499	8.21013
1.39075	8.62962
1.58652	8.9792
