Adsorption isotherm of Nitrogen on Mg-MOF-74
DOI: 10.1021/Jp311118x
Adsorbate Nitrogen: InChIKey IJGRMHOSHXDMSA-UHFFFAOYSA-N
Temperature: 298 K
Tabular data in the source: 0
pressure (bar)	uptake (molecules/unitcell)
0.0483655	0.0299582
0.296567	0.0998742
0.597206	0.16979
0.803458	0.274664
0.995727	0.34458
1.20547	0.309622
1.38726	0.309622
1.57603	0.379538
