Adsorption isotherm of Carbon Dioxide on Mg-MOF-74
DOI: 10.1021/Jp311118x
Adsorbate Carbon Dioxide: InChIKey CURLTUGMZLYLDI-UHFFFAOYSA-N
Temperature: 298 K
Tabular data in the source: 0
pressure (bar)	uptake (mmol/g)
0.085596	2.25844
0.478873	4.30348
0.981394	5.29978
1.48392	5.98146
1.94274	6.40096
2.47803	6.84667
2.96963	7.00398
3.50492	7.34482
3.97467	7.65944
4.41165	7.65944
4.94694	8.00028
