Adsorption isotherm of Carbon Dioxide on Mg-MOF-74
DOI: 10.1021/Jp311118x
Adsorbate Carbon Dioxide: InChIKey CURLTUGMZLYLDI-UHFFFAOYSA-N
Temperature: 298 K
Tabular data in the source: 0
pressure (bar)	uptake (molecules/unitcell)
0.0448697	6.39231
0.100802	7.02155
0.209172	7.72071
0.300063	8.315
0.401441	8.9792
0.499324	9.46861
0.604197	10.0279
0.789475	10.9019
0.999223	11.5661
1.19848	12.0905
1.39774	12.6498
1.59001	13.279
