Adsorption isotherm of Nitrogen on Mg-MOF-74
DOI: 10.1021/Jp311118x
Adsorbate Nitrogen: InChIKey IJGRMHOSHXDMSA-UHFFFAOYSA-N
Temperature: 298 K
Tabular data in the source: 0
pressure (bar)	uptake (molecules/unitcell)
0.0483655	0.0299582
0.300063	0.0299582
0.799962	0.0649162
1.19149	0.134832
1.39774	0.134832
1.59001	0.134832
