Adsorption isotherm of Nitrogen on Mg-MOF-74
DOI: 10.1021/Jp311118x
Adsorbate Nitrogen: InChIKey IJGRMHOSHXDMSA-UHFFFAOYSA-N
Temperature: 298 K
Tabular data in the source: 0
pressure (bar)	uptake (molecules/unitcell)
0.0448697	0.0299582
0.198685	0.0998742
0.390954	0.134832
0.590214	0.16979
0.792971	0.239706
0.988735	0.379538
1.19499	0.414496
1.58302	0.554328
