Adsorption isotherm of Carbon Dioxide on Mg-MOF-74
DOI: 10.1021/Jp311118x
Adsorbate Carbon Dioxide: InChIKey CURLTUGMZLYLDI-UHFFFAOYSA-N
Temperature: 298 K
Tabular data in the source: 0
pressure (bar)	uptake (mmol/g)
0.0965204	4.11995
0.500722	7.13507
0.992319	8.86549
1.49484	9.7307
1.94274	10.3337
2.46711	10.491
2.95871	10.8581
3.494	11.2252
3.9419	11.566
4.50997	11.8282
4.96879	12.0379
