Adsorption isotherm of Carbon Dioxide on Mg-MOF-74
DOI: 10.1021/Jp311118x
Adsorbate Carbon Dioxide: InChIKey CURLTUGMZLYLDI-UHFFFAOYSA-N
Temperature: 298 K
Tabular data in the source: 0
pressure (bar)	uptake (mmol/g)
0.085596	2.67793
0.467949	5.09003
0.937697	6.55827
1.49484	7.68566
1.99736	8.15759
2.46711	8.57709
2.94778	8.99659
3.46123	9.57339
4.01837	9.83558
4.47719	9.8618
4.97971	10.0715
