Adsorption isotherm of Carbon Dioxide on Mg-MOF-74
DOI: 10.1021/Jp311118x
Adsorbate Carbon Dioxide: InChIKey CURLTUGMZLYLDI-UHFFFAOYSA-N
Temperature: 298 K
Tabular data in the source: 0
pressure (bar)	uptake (molecules/unitcell)
0.0448697	4.95903
0.11129	5.76307
0.205676	6.63702
0.307055	7.16139
0.397945	7.68576
0.502819	8.10525
0.59371	8.45483
0.803458	9.15399
0.999223	9.57349
1.19848	10.2377
1.39774	10.9019
1.58652	11.0767
