Adsorption isotherm of Carbon Dioxide on Zeolite 13X
DOI: 10.1021/Je800900a
Adsorbate Carbon Dioxide: InChIKey CURLTUGMZLYLDI-UHFFFAOYSA-N
Temperature: 348 K
Tabular data in the source: 0
pressure (bar)	uptake (mmol/g)
0.000109056	0.0401615
0.00012692	0.043848
0.000150945	0.048578
0.000175675	0.0538183
0.000204451	0.0587584
0.000237941	0.0650969
0.000282983	0.072119
0.000329344	0.0798988
0.000383292	0.0872328
0.000455848	0.0966429
0.00053053	0.105513
0.000617433	0.116895
0.000734311	0.127624
0.000854594	0.141392
0.00101639	0.154369
0.0012088	0.168537
0.00140681	0.184006
0.00167313	0.203855
0.00198987	0.222566
0.00258086	0.253899
0.00306944	0.277202
0.00365051	0.302644
0.00424849	0.330421
0.00516346	0.360747
0.00655347	0.405556
0.00779408	0.442778
0.00926955	0.483417
0.0131113	0.559604
0.015935	0.602089
0.0189516	0.6478
0.0225393	0.707255
0.0273935	0.76095
0.0325792	0.81872
0.0395956	0.880877
0.048123	0.947752
0.0610776	1.04999
0.0742315	1.12971
0.0902182	1.19782
0.107298	1.28875
0.205561	1.58181
0.249833	1.67717
0.303634	1.8045
0.369029	1.91329
0.448497	2.02863
0.545092	2.15093
0.662491	2.28061
0.805156	2.4181
