Adsorption isotherm of Carbon Dioxide on Silica Gel
DOI: 10.1021/Je800900a
Adsorbate Carbon Dioxide: InChIKey CURLTUGMZLYLDI-UHFFFAOYSA-N
Temperature: 313 K
Tabular data in the source: 0
pressure (bar)	uptake (mmol/g)
0.000814498	0.00120907
0.00202736	0.00273924
0.00411018	0.00491281
0.0107079	0.0122685
0.0327228	0.0365065
0.112073	0.112942
0.198166	0.194823
0.366741	0.323232
0.578602	0.477141
0.814498	0.651558
