Adsorption isotherm of Carbon Dioxide on Zeolite 13X
DOI: 10.1021/Je800900a
Adsorbate Carbon Dioxide: InChIKey CURLTUGMZLYLDI-UHFFFAOYSA-N
Temperature: 423 K
Tabular data in the source: 0
pressure (bar)	uptake (mmol/g)
0.0146119	0.195099
0.029874	0.253899
0.0460818	0.325621
0.079218	0.411535
0.130404	0.551474
0.224176	0.717682
