Adsorption isotherm of Carbon Dioxide on Zeolite 5A
DOI: 10.1021/Je800900a
Adsorbate Carbon Dioxide: InChIKey CURLTUGMZLYLDI-UHFFFAOYSA-N
Temperature: 298 K
Tabular data in the source: 0
pressure (bar)	uptake (mmol/g)
0.000230377	0.0104441
0.000269985	0.0117268
0.000308063	0.0133595
0.000361027	0.0150003
0.000423087	0.016843
0.000482814	0.0189117
0.000565822	0.0212344
0.000663025	0.0241908
0.000776998	0.0271619
0.000910584	0.0304986
0.00103913	0.0342444
0.00125059	0.0384512
0.00146558	0.0431738
0.00171754	0.0484764
0.00201282	0.0544315
0.00235885	0.0611167
0.00276469	0.0676379
0.00323999	0.0759451
0.00379699	0.0852747
0.00456966	0.0957481
0.00535525	0.10751
0.00611125	0.120715
0.00716427	0.12978
0.00862215	0.145721
0.0101056	0.161268
0.0118429	0.181076
0.013882	0.197514
0.0171628	0.212346
0.0229552	0.263866
0.0276296	0.292018
0.0341404	0.337522
0.0411016	0.362867
0.0433271	0.384509
0.0521497	0.425531
0.0661825	0.484769
0.079659	0.536488
0.128325	0.676377
0.14644	0.759457
0.185969	0.793179
0.206652	0.890606
0.255552	0.930151
0.342027	1.05964
0.45772	1.22476
0.565835	1.33594
0.699488	1.45721
0.936289	1.6362
