Adsorption isotherm of Carbon Dioxide on Zeolite 13X
DOI: 10.1021/Je800900a
Adsorbate Carbon Dioxide: InChIKey CURLTUGMZLYLDI-UHFFFAOYSA-N
Temperature: 373 K
Tabular data in the source: 0
pressure (bar)	uptake (mmol/g)
0.000104429	0.022695
0.000121537	0.0251432
0.000141446	0.0278561
0.000164615	0.030861
0.000195776	0.0341901
0.000227851	0.0378783
0.000265173	0.0419643
0.00030861	0.0458163
0.000359162	0.0507586
0.000427159	0.0562341
0.00049713	0.0623003
0.000578562	0.068019
0.000688098	0.0753564
0.000800811	0.0834853
0.000952401	0.0924911
0.00110842	0.10098
0.00131826	0.110249
0.0015342	0.120367
0.00182463	0.133352
0.00217006	0.145591
0.00252553	0.158954
0.00300363	0.173543
0.00357224	0.192264
0.00424849	0.20991
0.00563103	0.242993
0.00669703	0.265295
0.00796483	0.289644
0.00947263	0.316228
0.0133986	0.371463
0.015935	0.399664
0.0193668	0.436346
0.0245803	0.483417
0.0292336	0.527786
0.0347677	0.567854
0.048123	0.6478
0.0572331	0.69698
0.0695589	0.76095
0.0942146	0.855467
0.114504	0.920414
0.139165	0.990291
0.184451	1.09712
0.224176	1.16326
0.284525	1.27003
0.345796	1.3466
0.420272	1.44883
0.510787	1.53618
0.620783	1.6528
0.754484	1.75244
