Adsorption isotherm of Carbon Dioxide on Zeolite 5A
DOI: 10.1021/Je800900a
Adsorbate Carbon Dioxide: InChIKey CURLTUGMZLYLDI-UHFFFAOYSA-N
Temperature: 348 K
Tabular data in the source: 0
pressure (bar)	uptake (mmol/g)
3.31e-05	0.0104441
3.88e-05	0.0117268
4.54e-05	0.0131674
5.18e-05	0.0150003
6.07e-05	0.016843
7.12e-05	0.0189117
8.34e-05	0.0212344
9.78e-05	0.023843
0.000114567	0.0267713
0.000134264	0.0300601
0.000157348	0.033752
0.000184395	0.0378983
0.000216098	0.042553
0.00025325	0.0477804
0.000296784	0.0536488
0.000347808	0.0602379
0.000407605	0.0676379
0.000477727	0.0748531
0.00057495	0.0840485
0.000673783	0.0943713
0.000810905	0.105964
0.000950408	0.117269
0.0011138	0.131673
0.00145128	0.154411
0.0017468	0.170885
0.00210226	0.191875
0.00246395	0.212346
0.00296568	0.235001
0.00356958	0.260072
0.005902	0.352509
0.00710382	0.390117
0.00855036	0.431738
0.00925723	0.450908
0.0111423	0.499014
0.0137725	0.552253
0.0165788	0.602385
0.0227819	0.70641
0.0281629	0.770534
0.0296945	0.793179
0.0357451	0.865181
0.0560846	1.05964
0.0771033	1.17269
0.0903687	1.2978
0.153547	1.61268
0.254132	1.91875
0.314159	2.09293
0.388445	2.21775
0.480253	2.38428
0.816357	2.79602
