Adsorption isotherm of Water on Zeolite 13X
DOI: 10.1021/Je800900a
Adsorbate Water: InChIKey XLYOFNOQVPJJNP-UHFFFAOYSA-N
Temperature: 373 K
Tabular data in the source: 0
pressure (bar)	uptake (mmol/g)
0.000476782	2.67531
0.0021429	4.62172
0.00474232	6.21292
0.0138737	8.29839
0.0151177	8.51467
