Adsorption isotherm of Water on Zeolite 5A
DOI: 10.1021/Je800900a
Adsorbate Water: InChIKey XLYOFNOQVPJJNP-UHFFFAOYSA-N
Temperature: 348 K
Tabular data in the source: 0
pressure (bar)	uptake (mmol/g)
0.000239155	3.20139
0.00116957	5.10722
0.00214322	6.26835
0.00368887	7.3846
0.00750383	8.4884
0.0162511	9.75717
