Adsorption isotherm of Carbon Dioxide on Zeolite 13X
DOI: 10.1021/Je800900a
Adsorbate Carbon Dioxide: InChIKey CURLTUGMZLYLDI-UHFFFAOYSA-N
Temperature: 248 K
Tabular data in the source: 0
pressure (bar)	uptake (mmol/g)
0.00178552	1.91329
0.00357224	2.60168
0.00443669	2.88235
0.0103304	3.58992
0.0211206	4.1557
0.0942146	5.10067
