Adsorption isotherm of Carbon Dioxide on Zeolite 5A
DOI: 10.1021/Je800900a
Adsorbate Carbon Dioxide: InChIKey CURLTUGMZLYLDI-UHFFFAOYSA-N
Temperature: 248 K
Tabular data in the source: 0
pressure (bar)	uptake (mmol/g)
1.14e-05	0.27162
1.49e-05	0.309433
1.89e-05	0.352509
2.53e-05	0.401582
3.3e-05	0.464159
4.19e-05	0.521172
5.46e-05	0.602385
7.3e-05	0.686243
0.000108678	0.804749
0.000166062	0.971452
0.000222331	1.05964
0.000240602	1.17269
0.000274815	1.17269
0.000297564	1.20715
0.000367892	1.2978
0.000454789	1.41561
0.000562264	1.52191
0.000695152	1.6362
0.000882592	1.75907
0.00109107	1.91875
0.00138528	2.06284
0.00175901	2.18586
0.00223333	2.35001
0.00315304	2.60072
0.00400325	2.79602
0.0050833	2.96277
0.00645402	3.18526
0.00819525	3.37522
0.0104063	3.57651
0.0135698	3.7898
0.0172328	3.95807
0.021882	4.19413
0.0277856	4.44426
0.0362366	4.64159
0.0460129	4.9184
0.0584334	5.13679
0.0762146	5.28774
0.0967765	5.6031
0.126212	5.85189
0.160299	6.02385
0.209055	6.29132
0.265516	6.47621
0.346266	6.76377
0.439785	6.96253
0.573614	7.16714
0.72845	7.48538
0.950123	7.70534
