Adsorption isotherm of Water on Zeolite 13X
DOI: 10.1021/Je800900a
Adsorbate Water: InChIKey XLYOFNOQVPJJNP-UHFFFAOYSA-N
Temperature: 298 K
Tabular data in the source: 0
pressure (bar)	uptake (mmol/g)
3.47368e-05	6.29337
0.000146386	8.46007
0.000437552	10.2605
0.00416915	12.2065
0.0183402	14.3357
