Adsorption isotherm of Carbon Dioxide on Zeolite 5A
DOI: 10.1021/Je800900a
Adsorbate Carbon Dioxide: InChIKey CURLTUGMZLYLDI-UHFFFAOYSA-N
Temperature: 298 K
Tabular data in the source: 0
pressure (bar)	uptake (mmol/g)
1.1e-05	0.0309435
1.29e-05	0.034744
1.51e-05	0.0390113
1.77e-05	0.0438036
2.14e-05	0.0484764
2.5e-05	0.0544315
2.93e-05	0.0611167
3.44e-05	0.0686246
4.14e-05	0.0770531
4.85e-05	0.0852747
6.32e-05	0.101459
7.6e-05	0.113921
8.91e-05	0.126075
9.64e-05	0.139526
0.000119234	0.150003
0.000168202	0.183718
0.000202456	0.203318
0.000243652	0.228292
0.000293332	0.245435
0.000317475	0.267715
0.000382164	0.292018
0.000424815	0.313946
0.000497852	0.352509
0.000684195	0.407439
0.000823607	0.444426
0.00101792	0.499014
0.00155522	0.611173
0.00187212	0.666652
0.00257286	0.770534
0.00318058	0.840482
0.00437158	0.957485
0.00526175	1.05964
0.00847917	1.27914
0.0104819	1.39526
0.0136639	1.54411
0.0173484	1.66007
0.0214485	1.78473
0.027229	1.94674
0.0336643	2.09293
0.0462805	2.31622
0.0572183	2.49015
0.099884	2.92018
0.126818	3.13946
0.174385	3.37522
0.221432	3.57651
0.465565	4.25531
0.750672	4.77799
