Adsorption isotherm of Water on Zeolite 13X
DOI: 10.1021/Je800900a
Adsorbate Water: InChIKey XLYOFNOQVPJJNP-UHFFFAOYSA-N
Temperature: 323 K
Tabular data in the source: 0
pressure (bar)	uptake (mmol/g)
1.32e-05	1.76121
1.5e-05	1.8542
1.67e-05	1.9647
1.86e-05	2.08179
2.08e-05	2.1917
2.31e-05	2.32232
2.57e-05	2.44494
2.86e-05	2.59065
3.19e-05	2.74503
3.55e-05	2.88997
3.95e-05	3.0622
4.49e-05	3.22389
5e-05	3.39411
5.69e-05	3.59638
6.47e-05	3.78627
7.36e-05	3.9862
8.38e-05	4.19667
9.53e-05	4.41826
0.000108385	4.62172
0.000125959	4.86576
0.000143278	5.08984
0.000166514	5.32423
0.000193513	5.56942
0.000224895	5.8259
0.000261367	6.13351
0.000297297	6.33397
0.00034551	6.62566
0.000401541	6.93078
0.000476782	7.20347
0.000566122	7.5352
0.00065793	7.83168
0.00092762	8.40584
0.00110143	8.73657
0.00133621	9.02209
0.00162103	9.25721
0.00196655	9.55976
0.00238573	9.80889
0.00302124	10.1948
0.00366524	10.4604
0.00444651	10.7332
0.0053943	11.0129
0.00668613	11.2274
0.00811131	11.5199
0.0100538	11.6692
0.0121968	11.9732
0.0151177	12.1283
0.0179506	12.2854
0.0222494	12.4443
0.026992	12.6055
0.0334562	12.7688
0.0405875	13.0176
