Adsorption isotherm of Carbon Dioxide on Zeolite 13X
DOI: 10.1021/Je800900a
Adsorbate Carbon Dioxide: InChIKey CURLTUGMZLYLDI-UHFFFAOYSA-N
Temperature: 298 K
Tabular data in the source: 0
pressure (bar)	uptake (mmol/g)
0.00115752	0.469472
0.00231583	0.676874
0.00365051	0.843039
0.00796483	1.14636
0.0256692	1.60512
0.0404631	2.11968
0.117015	3.01172
0.176628	3.33661
0.278426	3.64285
0.411263	4.03582
0.607477	4.27914
0.805156	4.4712
