Adsorption isotherm of Water on Zeolite 13X
DOI: 10.1021/Je800900a
Adsorbate Water: InChIKey XLYOFNOQVPJJNP-UHFFFAOYSA-N
Temperature: 273 K
Tabular data in the source: 0
pressure (bar)	uptake (mmol/g)
1.32193e-05	7.73158
1.56964e-05	7.98427
1.90423e-05	8.2452
2.26105e-05	8.56961
2.74303e-05	8.84967
3.25702e-05	9.19786
3.9513e-05	9.49848
4.79347e-05	9.74601
5.81527e-05	10.0644
7.05472e-05	10.3269
8.55855e-05	10.596
0.000103829	10.872
0.000125959	11.0838
0.000156124	11.2998
0.000189404	11.5199
0.000234763	11.7444
0.000284807	11.9732
0.000353012	12.2065
0.000428253	12.3646
0.000530811	12.5248
0.000643962	12.7688
0.000798178	12.8511
0.0009683	13.0176
0.0012002	13.1859
0.00148763	13.2712
0.00180472	13.4428
0.00223692	13.5294
0.00277262	13.617
0.00336362	13.793
0.00399392	13.8823
0.00495039	13.8823
0.00613591	13.9717
0.00744381	14.0618
0.00903048	14.1527
0.0109554	14.2439
0.013579	14.3357
0.0199848	14.5215
0.0242446	14.4285
0.0300507	14.4285
0.0364562	14.5215
