Adsorption isotherm of Water on Zeolite 13X
DOI: 10.1021/Je800900a
Adsorbate Water: InChIKey XLYOFNOQVPJJNP-UHFFFAOYSA-N
Temperature: 348 K
Tabular data in the source: 0
pressure (bar)	uptake (mmol/g)
2.57e-05	1.03268
2.8e-05	1.09422
3.12e-05	1.15943
3.4e-05	1.22853
3.7e-05	1.30174
4.04e-05	1.37932
4.49e-05	1.46152
4.9e-05	1.54862
5.45e-05	1.64091
5.94e-05	1.73869
6.61e-05	1.84231
7.36e-05	1.9521
8.2e-05	2.05518
9.13e-05	2.17765
9.95e-05	2.30743
0.000113138	2.42927
0.000134341	2.65816
0.000152809	2.79851
0.000170126	2.96529
0.000193513	3.12186
0.000215442	3.2867
0.000245064	3.46024
0.000278753	3.66645
0.000310342	3.86004
0.000353012	4.06386
0.000401541	4.27844
0.000456741	4.50434
0.000566122	4.86576
0.00065793	5.08984
0.000748393	5.35858
0.000869741	5.60535
0.00101079	5.86349
0.00136521	6.41598
0.00162103	6.66841
0.0018839	6.93078
0.00223692	7.24995
0.00265608	7.5352
0.00308681	7.83168
0.00495039	8.68054
0.00587802	8.96425
0.00713094	9.25721
0.00865093	9.55976
0.011436	10
0.0138737	10.2605
0.0168309	10.5281
0.0208616	10.7332
0.0253083	11.0129
0.0307029	11.2274
0.0380557	11.5199
