Adsorption isotherm of Water on Zeolite 5A
DOI: 10.1021/Je800900a
Adsorbate Water: InChIKey XLYOFNOQVPJJNP-UHFFFAOYSA-N
Temperature: 273 K
Tabular data in the source: 0
pressure (bar)	uptake (mmol/g)
1.04265e-05	6.01671
1.25826e-05	6.16646
1.51848e-05	6.42435
1.83248e-05	6.63841
2.21141e-05	6.8596
2.6687e-05	7.14649
3.22062e-05	7.3846
3.8866e-05	7.63066
4.69029e-05	7.88491
5.66018e-05	8.14764
6.97493e-05	8.35041
8.41725e-05	8.62865
0.000101578	8.91616
0.000125173	9.13806
0.000151057	9.44254
0.000182293	9.67754
0.000259998	10.1653
0.000313762	10.4181
0.000386634	10.6775
0.000540045	11.0332
0.000651718	11.4009
0.000786484	11.5894
0.000969148	11.8776
0.00116957	12.1733
0.00144122	12.3746
0.00185171	12.6824
0.0022818	12.892
0.00275365	13.1051
0.00312127	13.3217
0.00384622	13.5416
0.00464159	13.7654
0.00571966	13.993
0.00690243	14.341
0.00850561	14.4591
0.0102645	14.6981
0.0126486	14.941
0.0155863	15.1876
0.0188094	15.3126
0.0231782	15.5657
0.0279713	15.823
0.0344679	15.9533
