Adsorption isotherm of Carbon Dioxide on Zeolite 5A
DOI: 10.1021/Je800900a
Adsorbate Carbon Dioxide: InChIKey CURLTUGMZLYLDI-UHFFFAOYSA-N
Temperature: 423 K
Tabular data in the source: 0
pressure (bar)	uptake (mmol/g)
0.00987338	0.10444
0.0196512	0.154411
0.0256025	0.183718
0.0324989	0.203318
0.048356	0.245435
0.0630284	0.275583
0.0865625	0.347441
0.118924	0.419413
0.150907	0.484769
0.196585	0.585189
0.263021	0.696253
0.351795	0.865181
0.446509	0.971452
0.613705	1.10669
0.778933	1.24262
