Adsorption isotherm of Carbon Dioxide on Zeolite 5A
DOI: 10.1021/Je800900a
Adsorbate Carbon Dioxide: InChIKey CURLTUGMZLYLDI-UHFFFAOYSA-N
Temperature: 228 K
Tabular data in the source: 0
pressure (bar)	uptake (mmol/g)
1.2e-05	0.629132
1.88e-05	0.770534
3.03e-05	0.930151
4.39e-05	1.07509
6.2e-05	1.22476
9.23e-05	1.39526
0.000126809	1.58949
0.000193852	1.81076
0.00029634	2.06284
0.000429606	2.31622
0.000674419	2.63866
0.00103122	2.92018
0.00184889	3.37522
0.0029032	3.73531
0.00493669	4.19413
0.00839452	4.7093
0.0142775	5.13679
0.0224216	5.6031
0.0371385	6.02385
0.0631726	6.47621
0.110339	7.0641
0.182785	7.48538
0.294849	7.93179
0.451087	8.16488
0.767291	8.77801
