Adsorption isotherm of Water on Zeolite 5A
DOI: 10.1021/Je800900a
Adsorbate Water: InChIKey XLYOFNOQVPJJNP-UHFFFAOYSA-N
Temperature: 373 K
Tabular data in the source: 0
pressure (bar)	uptake (mmol/g)
1.2e-05	0.416118
1.3e-05	0.444311
1.5e-05	0.474413
1.7e-05	0.506554
1.9e-05	0.545324
2.1e-05	0.582271
2.4e-05	0.621719
2.7e-05	0.663841
3e-05	0.708817
3.4e-05	0.75684
3.9e-05	0.808115
4.4e-05	0.862865
5e-05	0.921325
6.2e-05	1.02489
7e-05	1.09432
8.1e-05	1.15893
9.2e-05	1.23745
0.000104	1.32128
0.00012	1.39929
0.000139	1.49409
0.000157	1.5823
0.000182	1.6895
0.000211	1.78924
0.000239	1.89487
0.000283	2.02325
0.00032	2.1427
0.000371	2.28787
0.00042	2.40316
0.00054	2.62984
0.000625	2.78509
0.000723	2.94952
0.000855	3.12365
0.00099	3.28106
0.001145	3.47476
0.001354	3.64987
0.0016	3.86535
0.001891	4.06014
0.002188	4.26474
0.002586	4.47967
0.003057	4.70542
0.003538	4.94254
0.00484	5.3646
0.00572	5.63495
0.00676	5.91891
0.008506	6.26835
0.010052	6.53051
0.012131	6.80362
0.01464	7.08817
0.017667	7.3846
0.02088	7.69345
0.025198	8.01521
0.030408	8.28226
0.036697	8.62865
