Adsorption isotherm of Water on Silica Gel
DOI: 10.1021/Je800900a
Adsorbate Water: InChIKey XLYOFNOQVPJJNP-UHFFFAOYSA-N
Temperature: 273 K
Tabular data in the source: 0
pressure (bar)	uptake (mmol/g)
1.3326e-05	0.297725
1.55543e-05	0.330144
1.85605e-05	0.372453
2.16636e-05	0.420185
2.5286e-05	0.474035
2.95135e-05	0.525652
3.44485e-05	0.593017
4.11065e-05	0.669015
4.798e-05	0.754753
5.60015e-05	0.836938
6.68252e-05	0.944196
7.79992e-05	1.0652
9.10395e-05	1.18119
0.000106262	1.33256
0.0001268	1.50334
0.000147999	1.66704
0.000176604	1.88068
0.000230202	2.27304
0.000268695	2.52055
0.000320627	2.84358
0.000374231	3.208
0.00044656	3.61912
0.000521231	4.0132
0.000621956	4.45019
0.000725956	4.93477
0.000967409	6.06795
0.00112917	6.72868
0.0013474	7.591
0.00160781	8.41757
0.00228935	10.7135
0.00273181	11.8798
0.00318858	13.4023
0.00415628	15.9221
0.00495957	17.6555
0.00660913	21.3393
