Adsorption isotherm of Carbon Dioxide on Zeolite 5A
DOI: 10.1021/Je800900a
Adsorbate Carbon Dioxide: InChIKey CURLTUGMZLYLDI-UHFFFAOYSA-N
Temperature: 398 K
Tabular data in the source: 0
pressure (bar)	uptake (mmol/g)
0.00644502	0.120715
0.0128277	0.178473
0.0176252	0.212346
0.0235922	0.238428
0.0332743	0.300599
0.0445293	0.347441
0.0627969	0.444426
0.0885882	0.544313
0.11543	0.638309
0.158599	0.759457
0.217942	0.890606
0.291561	1.07509
0.379901	1.26075
0.522108	1.45721
0.69886	1.6362
0.887197	1.78473
