Adsorption isotherm of Carbon Dioxide on Zeolite 5A
DOI: 10.1021/Je800900a
Adsorbate Carbon Dioxide: InChIKey CURLTUGMZLYLDI-UHFFFAOYSA-N
Temperature: 373 K
Tabular data in the source: 0
pressure (bar)	uptake (mmol/g)
0.000106458	0.0117268
0.000124761	0.0131674
0.000146208	0.0147846
0.000166848	0.0166008
0.00019551	0.0189117
0.000229124	0.0212344
0.000268516	0.023843
0.000314673	0.0267713
0.000368774	0.0300601
0.000432175	0.033752
0.000506466	0.0378983
0.00059354	0.042553
0.000695585	0.0477804
0.000815155	0.0536488
0.0009553	0.0602379
0.00111953	0.0676379
0.00131214	0.0748531
0.00157916	0.0840485
0.00185064	0.0943713
0.0021688	0.105964
0.00261042	0.117269
0.00349184	0.143626
0.00420288	0.158949
0.00492543	0.178473
0.00592838	0.197514
0.00772462	0.231622
0.010334	0.279602
0.0134666	0.323172
0.0162088	0.357651
0.0185031	0.384509
0.0222709	0.425531
0.0275251	0.477799
0.0331337	0.521172
0.0467472	0.629132
0.0642451	0.727168
0.0882826	0.852742
0.131371	1.01459
0.175829	1.15583
0.223193	1.27914
0.275905	1.39526
0.315036	1.45721
0.389439	1.58949
0.494402	1.73378
0.611181	1.89117
0.862681	2.15443
