Adsorption isotherm of Carbon Dioxide on Zeolite 5A
DOI: 10.1021/Je800900a
Adsorbate Carbon Dioxide: InChIKey CURLTUGMZLYLDI-UHFFFAOYSA-N
Temperature: 298 K
Tabular data in the source: 0
pressure (bar)	uptake (mmol/g)
5.39e-05	0.1
0.000143496	0.168428
0.000599487	0.368161
0.00136253	0.56031
0.00383036	0.865181
0.00826313	1.15583
0.0126319	1.31673
0.0405464	2.12346
0.0874988	2.7162
0.161068	3.23172
0.266729	3.57651
0.418832	3.95807
0.57605	4.13382
0.731543	4.31738
0.881089	4.38035
