Adsorption isotherm of Water on Zeolite 13X
DOI: 10.1021/Je800900a
Adsorbate Water: InChIKey XLYOFNOQVPJJNP-UHFFFAOYSA-N
Temperature: 323 K
Tabular data in the source: 0
pressure (bar)	uptake (mmol/g)
3.39993e-05	2.65816
0.000131486	4.5921
0.000278753	6.21292
0.000716935	8.29839
0.000833201	8.46007
0.00277262	10.1295
0.0168309	11.8965
