Adsorption isotherm of Water on Silica Gel
DOI: 10.1021/Je800900a
Adsorbate Water: InChIKey XLYOFNOQVPJJNP-UHFFFAOYSA-N
Temperature: 323 K
Tabular data in the source: 0
pressure (bar)	uptake (mmol/g)
1.36235e-05	0.0479513
1.59016e-05	0.0540966
1.89749e-05	0.0610295
2.21473e-05	0.0676737
2.58506e-05	0.0763467
3.08468e-05	0.0861311
3.60039e-05	0.0955103
4.20243e-05	0.10775
4.90512e-05	0.119483
5.85315e-05	0.134796
6.83172e-05	0.152071
7.97407e-05	0.168629
9.51525e-05	0.19024
0.000111061	0.210955
0.000132526	0.23799
0.000154686	0.263904
0.000184582	0.297725
0.000215442	0.330144
0.000257081	0.372453
0.000327786	0.434915
0.000382587	0.490651
0.000456531	0.544078
0.000532868	0.613804
0.000635858	0.680641
0.000742164	0.754753
0.000885605	0.85148
0.00105677	0.928071
0.00123347	1.04701
0.0014397	1.18119
0.00171796	1.30981
0.00204999	1.45243
0.00239275	1.61058
0.00285519	1.81699
0.00388981	2.19607
0.00454019	2.4352
0.00541768	2.70036
0.00646475	3.04643
0.00771418	3.37814
0.00900402	3.74598
0.0107442	4.15388
0.0128208	4.60619
0.0152986	5.1965
0.0182554	5.76234
0.019506	5.96432
0.0232759	6.61377
0.0277744	7.33393
0.0324184	8.1325
0.0386839	9.01804
