Adsorption isotherm of Water on Zeolite 5A
DOI: 10.1021/Je800900a
Adsorbate Water: InChIKey XLYOFNOQVPJJNP-UHFFFAOYSA-N
Temperature: 298 K
Tabular data in the source: 0
pressure (bar)	uptake (mmol/g)
1.04265e-05	3.77148
1.23225e-05	3.96155
1.45636e-05	4.12722
1.75752e-05	4.33522
2.07711e-05	4.51652
2.45482e-05	4.74413
2.96251e-05	4.94254
3.50122e-05	5.19161
4.1379e-05	5.40874
4.99356e-05	5.63495
6.02629e-05	5.87061
7.12213e-05	6.11613
8.59488e-05	6.37192
0.000103722	6.63841
0.000125173	6.8596
0.000151057	7.14649
0.000182293	7.3846
0.000219989	7.63066
0.000265485	7.9498
0.000320383	8.21469
0.000386634	8.4884
0.000466584	8.77122
0.00056308	9.06348
0.000693857	9.28907
0.000837336	9.59856
0.00121946	10.1653
0.0015027	10.4181
0.00181344	10.6775
0.00218845	10.9433
0.0029317	11.4009
0.00353796	11.6848
0.00435969	11.9754
0.00526124	12.2735
0.00648322	12.4764
0.00905558	12.892
0.0111588	13.213
0.0134664	13.4311
0.0169444	13.7654
0.0208799	13.993
0.0251977	14.2239
0.0310501	14.4591
0.0374711	14.6981
