Adsorption isotherm of Water on Zeolite 13X
DOI: 10.1021/Je800900a
Adsorbate Water: InChIKey XLYOFNOQVPJJNP-UHFFFAOYSA-N
Temperature: 273 K
Tabular data in the source: 0
pressure (bar)	uptake (mmol/g)
0.000106082	10.1948
0.000672218	12.2065
0.00374479	14.2439
