Adsorption isotherm of Water on Zeolite 13X
DOI: 10.1021/Je800900a
Adsorbate Water: InChIKey XLYOFNOQVPJJNP-UHFFFAOYSA-N
Temperature: 373 K
Tabular data in the source: 0
pressure (bar)	uptake (mmol/g)
0.000101623	1.08024
0.000110736	1.14461
0.000120667	1.21283
0.000134341	1.28511
0.000146386	1.36169
0.000162975	1.44284
0.000181443	1.52883
0.000202004	1.60955
0.00022012	1.70547
0.000245064	1.8071
0.000272835	1.9148
0.000297297	2.02891
0.000330986	2.14982
0.000368494	2.26334
0.000410251	2.39821
0.000456741	2.54114
0.000542338	2.76275
0.000603796	2.92739
0.0006868	3.08196
0.000764628	3.24469
0.000869741	3.43806
0.0009683	3.61959
0.00110143	3.81071
0.00125286	4.01192
0.0014251	4.22375
0.00165621	4.41826
0.0021429	4.83457
0.0024904	5.08984
0.00283279	5.32423
0.00329218	5.60535
0.00374479	5.86349
0.00435206	6.13351
0.00527972	6.49904
0.00613591	6.75475
0.0072857	7.06581
0.00846718	7.34382
0.0100538	7.68201
0.0119378	7.98427
0.0171961	8.51467
0.0204185	8.79294
0.0247707	9.08032
0.0300507	9.37707
0.0356819	9.74601
