Adsorption isotherm of Carbon Dioxide on Zeolite 13X
DOI: 10.1021/Je800900a
Adsorbate Carbon Dioxide: InChIKey CURLTUGMZLYLDI-UHFFFAOYSA-N
Temperature: 448 K
Tabular data in the source: 0
pressure (bar)	uptake (mmol/g)
0.000222967	0.0104489
0.00025949	0.011576
0.000301995	0.0128248
0.000351463	0.0142082
0.000409035	0.0157409
0.000476047	0.0174393
0.000554026	0.0193206
0.000658901	0.0214047
0.000766849	0.0237137
0.000892463	0.0258905
0.00103865	0.0286834
0.00123528	0.0317775
0.00143763	0.0346937
0.00167313	0.038437
0.00198987	0.0425834
0.00231583	0.0464911
0.00275423	0.0515063
0.0032054	0.0562341
0.00373048	0.061396
0.00443669	0.068019
0.00516346	0.0742609
0.00614094	0.0822716
0.00730347	0.0898235
0.00849986	0.0980686
0.0101089	0.107068
0.0120226	0.118619
0.0142986	0.129505
0.0170054	0.139337
0.0235378	0.166088
0.0279936	0.181332
0.033293	0.197975
0.0363078	0.213005
0.0431811	0.225847
0.0513556	0.246575
0.0560061	0.265295
0.0666084	0.277202
0.079218	0.302644
0.0942146	0.325621
0.11205	0.350342
0.133263	0.382496
0.161961	0.411535
0.196843	0.442778
0.234105	0.476394
0.284525	0.512562
0.338384	0.559604
0.411263	0.593342
0.489114	0.638388
0.594456	0.686853
0.72247	0.738999
0.878072	0.795104
