Adsorption isotherm of Carbon Dioxide on Zeolite 13X
DOI: 10.1021/Je800900a
Adsorbate Carbon Dioxide: InChIKey CURLTUGMZLYLDI-UHFFFAOYSA-N
Temperature: 228 K
Tabular data in the source: 0
pressure (bar)	uptake (mmol/g)
0.000109056	1.19782
0.0001297	1.28875
0.000157634	1.38659
0.00019158	1.49186
0.000227851	1.62879
0.000276917	1.75244
0.000329344	1.88549
0.000400267	2.02863
0.000486474	2.15093
0.000591235	2.31423
0.000718572	2.45375
0.000873333	2.64004
0.00106141	2.7992
0.00129	3.01172
0.00156781	3.19328
0.00190546	3.33661
0.00226618	3.48637
0.00275423	3.69655
0.00334739	3.9194
0.00473472	4.27914
0.0057544	4.4712
0.00714691	4.67188
0.00868607	4.88156
0.010788	5.10067
0.0125552	5.3296
0.0152591	5.48791
0.0189516	5.73423
0.0235378	5.90454
0.0286069	6.16956
0.0355294	6.35281
0.0431811	6.63795
0.0536305	6.83512
0.0651805	7.03814
0.0809534	7.24718
0.0983877	7.46244
0.122197	7.6841
0.151768	7.91234
0.184451	8.02899
0.229087	8.26748
0.284525	8.38936
0.345796	8.63855
0.429477	8.89514
0.521975	9.02626
0.648276	9.29437
0.859251	9.71154
