Adsorption isotherm of Carbon Dioxide on Zeolite 5A
DOI: 10.1021/Je800900a
Adsorbate Carbon Dioxide: InChIKey CURLTUGMZLYLDI-UHFFFAOYSA-N
Temperature: 448 K
Tabular data in the source: 0
pressure (bar)	uptake (mmol/g)
0.00104832	0.0109079
0.00122868	0.0120715
0.00143975	0.0137518
0.00168727	0.0154412
0.00192546	0.0173376
0.00225648	0.0194675
0.00264441	0.0218585
0.00309868	0.0249018
0.0035361	0.0279602
0.00414402	0.031395
0.00485645	0.0352509
0.00569136	0.0395804
0.00666979	0.0444427
0.00781644	0.0499011
0.00916022	0.0560312
0.010735	0.0629129
0.0125805	0.0706415
0.014745	0.0781772
0.0172799	0.0877809
0.0207962	0.0985621
0.0243715	0.110669
0.0317558	0.12978
0.0447832	0.166007
0.0539024	0.183718
0.058352	0.194674
0.0702263	0.218586
0.0760237	0.231622
0.0915042	0.256333
0.107248	0.283681
0.129086	0.313946
0.143493	0.337522
0.172751	0.362867
0.202446	0.407439
0.270926	0.47093
0.301127	0.513679
0.362485	0.56031
0.448002	0.629132
0.525085	0.696253
0.649098	0.759457
0.781358	0.828398
0.965806	0.916778
