Adsorption isotherm of Water on Zeolite 5A
DOI: 10.1021/Je800900a
Adsorbate Water: InChIKey XLYOFNOQVPJJNP-UHFFFAOYSA-N
Temperature: 348 K
Tabular data in the source: 0
pressure (bar)	uptake (mmol/g)
1.25826e-05	1.03332
1.45636e-05	1.09432
1.65078e-05	1.16847
1.91064e-05	1.23745
2.21141e-05	1.32128
2.50663e-05	1.39929
2.90128e-05	1.49409
3.28859e-05	1.59532
3.80627e-05	1.6895
4.40545e-05	1.78924
5.09894e-05	1.91046
5.90174e-05	2.02325
6.6896e-05	2.1427
7.90606e-05	2.2692
9.15061e-05	2.40316
0.000105911	2.54504
0.000122586	2.67329
0.000141883	2.83111
0.000167683	2.97379
0.00019408	3.14935
0.000249362	3.41828
0.000288616	3.59054
0.000341099	3.80252
0.000403125	3.99414
0.000476431	4.19543
0.000551442	4.40685
0.000651718	4.62892
0.000786484	4.8622
0.000929501	5.10722
0.00107584	5.19161
0.00116957	5.40874
0.00138226	5.6813
0.0016681	5.91891
0.00237912	6.42435
0.00281177	6.69303
0.00418134	7.32435
0.00504601	7.63066
0.00608948	7.9498
0.00704812	8.21469
0.00832981	8.41913
0.0100523	8.69965
0.0121311	9.06348
0.0146397	9.36548
0.01804	9.67754
0.0241668	10.1653
0.0291644	10.4181
0.0351953	10.7654
