Adsorption isotherm of Carbon Dioxide on Silica Gel
DOI: 10.1021/Je800900a
Adsorbate Carbon Dioxide: InChIKey CURLTUGMZLYLDI-UHFFFAOYSA-N
Temperature: 328 K
Tabular data in the source: 0
pressure (bar)	uptake (mmol/g)
-1.87129	-3.91543
-1.80198	-3.85624
-1.74257	-3.78858
-1.67327	-3.72093
-1.61386	-3.66173
-1.54455	-3.59408
-1.48515	-3.53488
-1.41584	-3.46723
-1.35644	-3.39958
-1.28713	-3.34038
-1.22772	-3.27273
-1.15842	-3.21353
-1.09901	-3.14588
-1.0297	-3.08668
-0.960396	-3.01903
-0.90099	-2.95137
-0.841584	-2.90063
-0.782178	-2.83298
-0.712871	-2.76533
-0.653465	-2.71459
-0.584158	-2.64693
-0.524752	-2.58774
-0.405941	-2.46934
-0.336634	-2.41015
-0.267327	-2.34249
-0.207921	-2.2833
-0.138614	-2.21564
-0.0792079	-2.15645
0.029703	-2.04651
0.0990099	-1.98732
0.168317	-1.91966
0.227723	-1.86047
0.29703	-1.80127
0.366337	-1.73362
0.475248	-1.63214
0.544554	-1.57294
0.60396	-1.50529
0.673267	-1.44609
0.742574	-1.37844
0.811881	-1.31924
0.871287	-1.26004
0.970297	-1.17548
1.0396	-1.11628
1.09901	-1.05708
1.16832	-0.997886
1.26733	-0.913319
1.33663	-0.854123
1.40594	-0.794926
1.51485	-0.701903
1.58416	-0.642706
1.68317	-0.566596
1.75248	-0.5074
1.87129	-0.414376
