Adsorption isotherm of Water on Silica Gel
DOI: 10.1021/Je800900a
Adsorbate Water: InChIKey XLYOFNOQVPJJNP-UHFFFAOYSA-N
Temperature: 348 K
Tabular data in the source: 0
pressure (bar)	uptake (mmol/g)
1.36235e-05	0.0199182
1.59016e-05	0.0224709
1.89749e-05	0.0253507
2.21473e-05	0.0281112
2.64277e-05	0.0317139
3.08468e-05	0.0351666
3.60039e-05	0.0396735
4.20243e-05	0.0439936
5.01464e-05	0.0496318
5.85315e-05	0.0550364
6.83172e-05	0.0620898
8.15211e-05	0.068851
9.51525e-05	0.077673
0.000113543	0.0861311
0.000132526	0.0971695
0.000158139	0.10775
0.000184582	0.121559
0.000215442	0.134796
0.000257081	0.149473
0.000306768	0.168629
0.000358063	0.186991
0.000427268	0.210955
0.000498701	0.233925
0.000595086	0.263904
0.000710101	0.29264
0.000828839	0.324505
0.000989008	0.366093
0.00126101	0.427487
0.00150473	0.474035
0.00175632	0.525652
0.00209577	0.593017
0.00250082	0.65759
0.00291896	0.729194
0.0034831	0.808594
0.00415628	0.91222
0.00507033	1.02913
0.00605027	1.14119
0.00706189	1.26545
0.00842674	1.40324
0.0100554	1.58307
0.0119988	1.75545
0.0143178	1.9466
0.0163467	2.1217
0.019506	2.35272
0.0232759	2.60891
0.0277744	2.89299
0.0324184	3.208
0.0386839	3.55731
