Adsorption isotherm of Carbon Dioxide on Zeolite 13X
DOI: 10.1021/Je800900a
Adsorbate Carbon Dioxide: InChIKey CURLTUGMZLYLDI-UHFFFAOYSA-N
Temperature: 373 K
Tabular data in the source: 0
pressure (bar)	uptake (mmol/g)
0.00494445	0.25021
0.0120226	0.345252
0.0220561	0.449306
0.0460818	0.593342
0.0845394	0.795104
0.161961	1.03474
0.249833	1.19782
