Adsorption isotherm of Carbon Dioxide on Zeolite 13X
DOI: 10.1021/Je800900a
Adsorbate Carbon Dioxide: InChIKey CURLTUGMZLYLDI-UHFFFAOYSA-N
Temperature: 323 K
Tabular data in the source: 0
pressure (bar)	uptake (mmol/g)
0.212353	0.405556
0.483845	0.543462
1.2286	0.772168
2.73935	1.09712
6.37832	1.60512
11.4504	1.97012
19.2624	2.45375
42.0272	3.14689
