Adsorption isotherm of Carbon Dioxide on Zeolite 5A
DOI: 10.1021/Je800900a
Adsorbate Carbon Dioxide: InChIKey CURLTUGMZLYLDI-UHFFFAOYSA-N
Temperature: 298 K
Tabular data in the source: 0
pressure (bar)	uptake (mmol/g)
9.39096e-05	0.139526
0.000301301	0.238428
0.000392509	0.287819
0.000525098	0.347441
0.000940611	0.450908
0.00151526	0.568482
0.00231405	0.737777
0.00414564	0.943719
0.00633461	1.13921
0.0119683	1.45721
0.0244954	1.81076
0.0405238	2.28292
0.072639	2.7162
0.137319	3.23172
0.252831	3.73531
0.397045	4.07439
