Adsorption isotherm of Carbon Dioxide on Zeolite 5A
DOI: 10.1021/Je800900a
Adsorbate Carbon Dioxide: InChIKey CURLTUGMZLYLDI-UHFFFAOYSA-N
Temperature: 423 K
Tabular data in the source: 0
pressure (bar)	uptake (mmol/g)
0.000539213	0.011067
0.000631917	0.0124262
0.000721124	0.0139524
0.000845006	0.015895
0.000990262	0.0178472
0.00116052	0.0200396
0.00132434	0.0225009
0.00155202	0.025265
0.00181883	0.0283681
0.00213152	0.0318522
0.00249797	0.0357651
0.00292741	0.0401578
0.0034303	0.0457488
0.00402003	0.0513677
0.00471113	0.057678
0.00552168	0.0638308
0.00647093	0.0716721
0.0075834	0.0804748
0.00888711	0.0903587
0.011276	0.105964
0.0135721	0.117269
0.0159054	0.131673
0.0242874	0.173378
0.0361217	0.221775
0.0423316	0.249015
0.0509573	0.27162
0.0718778	0.337522
0.096169	0.401582
0.143077	0.49184
0.196607	0.576774
0.243019	0.638309
0.371253	0.793179
0.4469	0.865181
0.483849	0.903597
0.582438	0.985623
0.800461	1.13921
