Adsorption isotherm of Carbon Dioxide on Zeolite 13X
DOI: 10.1021/Je800900a
Adsorbate Carbon Dioxide: InChIKey CURLTUGMZLYLDI-UHFFFAOYSA-N
Temperature: 398 K
Tabular data in the source: 0
pressure (bar)	uptake (mmol/g)
0.00907083	0.225847
0.0202247	0.298247
0.0340224	0.382496
0.0624157	0.497776
0.11205	0.6478
0.210063	0.795104
