Adsorption isotherm of Carbon Dioxide on Silica Gel
DOI: 10.1021/Je800900a
Adsorbate Carbon Dioxide: InChIKey CURLTUGMZLYLDI-UHFFFAOYSA-N
Temperature: 283 K
Tabular data in the source: 0
pressure (bar)	uptake (mmol/g)
0.000134496	0.000383275
0.000157768	0.000439248
0.000180896	0.000513287
0.000212192	0.000588247
0.000243299	0.000687401
0.000285397	0.000803267
0.000327228	0.000920577
0.000383849	0.00107575
0.000440109	0.00123285
0.000504626	0.00144065
0.000591943	0.00165105
0.000760659	0.00212667
0.000892278	0.00248514
0.00102306	0.00284807
0.00120007	0.00332813
0.00137599	0.00381417
0.00161407	0.00445708
0.00185066	0.00510799
0.00243298	0.00670872
0.00278962	0.00783953
0.00327228	0.00898442
0.00383847	0.0102963
0.00482134	0.0132623
0.00565555	0.0151992
0.00648457	0.0177611
0.00760655	0.0203549
0.00892267	0.0237859
0.0112074	0.0300469
0.0131466	0.034435
0.0150736	0.039463
0.0176817	0.0461158
0.0207411	0.0528494
0.0237814	0.061759
0.0291976	0.0735885
0.0334774	0.0859924
0.0392698	0.0985508
0.0460645	0.115162
0.0540347	0.13198
0.0619554	0.151253
0.0726752	0.176749
0.0852497	0.20256
0.1	0.232141
0.120008	0.271271
0.14077	0.310885
0.165128	0.356285
0.1937	0.408314
0.248909	0.505844
0.291978	0.579714
0.342492	0.66437
0.493253	0.889734
