Adsorption isotherm of Carbon Dioxide on Zeolite 5A
DOI: 10.1021/Je800900a
Adsorbate Carbon Dioxide: InChIKey CURLTUGMZLYLDI-UHFFFAOYSA-N
Temperature: 248 K
Tabular data in the source: 0
pressure (bar)	uptake (mmol/g)
2.66753e-05	0.444426
4.07474e-05	0.56031
6.56191e-05	0.737777
0.000130749	0.943719
0.00024063	1.15583
0.000492323	1.50003
0.00127993	1.89117
0.00283618	2.45435
0.00596119	3.04984
0.0154993	3.7898
0.061673	4.64159
