Adsorption isotherm of Water on Silica Gel
DOI: 10.1021/Je800900a
Adsorbate Water: InChIKey XLYOFNOQVPJJNP-UHFFFAOYSA-N
Temperature: 293 K
Tabular data in the source: 0
pressure (bar)	uptake (mmol/g)
0.000946281	2.47751
0.00191855	4.45019
0.00239275	5.02051
0.00279282	5.28679
0.00454019	6.96455
0.00788646	11.0889
0.00962085	14.608
0.0117367	15.9221
0.0143178	17.354
0.0217836	18.5922
0.0243271	19.2438
