Adsorption isotherm of Water on Zeolite 5A
DOI: 10.1021/Je800900a
Adsorbate Water: InChIKey XLYOFNOQVPJJNP-UHFFFAOYSA-N
Temperature: 298 K
Tabular data in the source: 0
pressure (bar)	uptake (mmol/g)
0.000147935	7.44536
0.000355648	8.69965
0.0010536	9.83746
0.002641	11.124
0.00815764	12.4764
0.0155863	13.993
