Adsorption isotherm of Carbon Dioxide on Zeolite 5A
DOI: 10.1021/Je800900a
Adsorbate Carbon Dioxide: InChIKey CURLTUGMZLYLDI-UHFFFAOYSA-N
Temperature: 373 K
Tabular data in the source: 0
pressure (bar)	uptake (mmol/g)
0.00331359	0.12978
0.00713796	0.209293
0.00980756	0.249015
0.0134771	0.292018
0.0200507	0.357651
0.0275466	0.431738
0.0409735	0.544313
0.0593526	0.676377
0.0794197	0.793179
0.11205	0.957485
0.16674	1.13921
0.229103	1.35542
0.306598	1.56664
0.42126	1.86397
0.594744	2.06284
0.775372	2.2501
