Adsorption isotherm of Water on Zeolite 5A
DOI: 10.1021/Je800900a
Adsorbate Water: InChIKey XLYOFNOQVPJJNP-UHFFFAOYSA-N
Temperature: 323 K
Tabular data in the source: 0
pressure (bar)	uptake (mmol/g)
1.08713e-05	2.05668
1.25826e-05	2.1781
1.4871e-05	2.30669
1.72119e-05	2.42294
1.99214e-05	2.56598
2.3544e-05	2.71747
2.72502e-05	2.85441
3.22062e-05	3.02292
3.72761e-05	3.17526
4.40545e-05	3.36271
5.09894e-05	3.50335
6.02629e-05	3.71018
7.12213e-05	3.89715
8.41725e-05	4.09355
9.94787e-05	4.29984
0.000117568	4.47967
0.00013895	4.70542
0.000167683	4.9022
0.000198176	5.14925
0.000234212	5.3646
0.000282651	5.63495
0.000334049	5.87061
0.000403125	6.11613
0.000486486	6.42435
0.000587097	6.69303
0.0007085	6.91605
0.000837336	7.20528
0.0010105	7.44536
0.00121946	7.75675
0.00147163	8.01521
0.00181344	8.35041
0.00218845	8.62865
0.002641	8.91616
0.00318714	9.21325
0.00560143	10.1653
0.00675977	10.4181
0.00832981	10.7654
0.0100523	11.0332
0.0126486	11.4009
0.0155863	11.6848
0.0188094	11.9754
0.0231782	12.1733
0.0279713	12.4764
0.0337555	12.7867
