Adsorption isotherm of Water on Zeolite 5A
DOI: 10.1021/Je800900a
Adsorbate Water: InChIKey XLYOFNOQVPJJNP-UHFFFAOYSA-N
Temperature: 273 K
Tabular data in the source: 0
pressure (bar)	uptake (mmol/g)
0.000486486	10.9433
0.00170331	12.3746
0.0029317	13.8787
