Adsorption isotherm of Carbon Dioxide on Zeolite 13X
DOI: 10.1021/Je800900a
Adsorbate Carbon Dioxide: InChIKey CURLTUGMZLYLDI-UHFFFAOYSA-N
Temperature: 273 K
Tabular data in the source: 0
pressure (bar)	uptake (mmol/g)
0.000973285	0.855467
0.00281457	1.25158
0.00762699	1.91329
0.0181478	2.52663
0.0441272	3.33661
0.07264	3.86246
0.188491	4.53712
