Adsorption isotherm of Water on Zeolite 5A
DOI: 10.1021/Je800900a
Adsorbate Water: InChIKey XLYOFNOQVPJJNP-UHFFFAOYSA-N
Temperature: 323 K
Tabular data in the source: 0
pressure (bar)	uptake (mmol/g)
0.000265485	5.06554
0.000447497	6.21719
0.00075431	7.32435
0.0016681	8.4884
0.00418134	9.59856
0.0121311	10.854
