Adsorption isotherm of Water on Silica Gel
DOI: 10.1021/Je800900a
Adsorbate Water: InChIKey XLYOFNOQVPJJNP-UHFFFAOYSA-N
Temperature: 273 K
Tabular data in the source: 0
pressure (bar)	uptake (mmol/g)
0.000201632	2.08546
0.000925614	5.28679
0.0020052	10.5303
0.00372171	15.6498
0.00541768	19.2438
