Adsorption isotherm of Carbon Dioxide on Zeolite 13X
DOI: 10.1021/Je800900a
Adsorbate Carbon Dioxide: InChIKey CURLTUGMZLYLDI-UHFFFAOYSA-N
Temperature: 348 K
Tabular data in the source: 0
pressure (bar)	uptake (mmol/g)
0.00231583	0.261441
0.0057544	0.376939
0.0120226	0.505115
0.0279936	0.686853
0.0548055	0.947752
0.11205	1.30775
0.184451	1.60512
