Adsorption isotherm of Carbon Dioxide on Zeolite 5A
DOI: 10.1021/Je800900a
Adsorbate Carbon Dioxide: InChIKey CURLTUGMZLYLDI-UHFFFAOYSA-N
Temperature: 323 K
Tabular data in the source: 0
pressure (bar)	uptake (mmol/g)
0.000354838	0.141561
0.00107939	0.245435
0.00156426	0.287819
0.00193245	0.342445
0.00319657	0.438035
0.00463043	0.544313
0.00807688	0.70641
0.0133604	0.903597
0.0198815	1.07509
0.0311909	1.33594
0.0558911	1.66007
0.0924837	2.03318
0.145158	2.38428
0.22783	2.79602
0.367308	3.18526
0.518621	3.47441
