Adsorption isotherm of Carbon Dioxide on Zeolite 5A
DOI: 10.1021/Je800900a
Adsorbate Carbon Dioxide: InChIKey CURLTUGMZLYLDI-UHFFFAOYSA-N
Temperature: 323 K
Tabular data in the source: 0
pressure (bar)	uptake (mmol/g)
1.08e-05	0.011067
1.27e-05	0.0124262
1.49e-05	0.0139524
1.74e-05	0.0156664
2.04e-05	0.0175906
2.39e-05	0.0197515
2.73e-05	0.0221774
3.2e-05	0.025265
3.75e-05	0.0283681
4.39e-05	0.0318522
5.15e-05	0.0357651
6.03e-05	0.0395804
7.07e-05	0.0444427
8.51e-05	0.0499011
9.97e-05	0.0560312
0.000116883	0.0629129
0.000136978	0.0706415
0.000164869	0.0781772
0.000193215	0.0877809
0.000226433	0.0985621
0.00027254	0.109078
0.000319396	0.122476
0.000364443	0.139526
0.000450568	0.150003
0.000528032	0.168428
0.00063555	0.186397
0.000764892	0.209293
0.00092064	0.231622
0.00110799	0.260072
0.0013336	0.287819
0.00209174	0.368161
0.00251796	0.401582
0.00303069	0.444426
0.00345968	0.477799
0.00416417	0.528774
0.00514716	0.585189
0.00619597	0.638309
0.00765859	0.70641
0.00874266	0.759457
0.0108077	0.828398
0.0130099	0.903597
0.0148531	0.957485
0.0183613	1.0444
0.0221051	1.12283
0.0273264	1.22476
0.0311874	1.35542
0.0365735	1.39526
0.0452121	1.52191
0.0544247	1.66007
0.0672947	1.75907
0.083199	1.89117
0.100164	2.03318
0.127172	2.18586
0.137654	2.35001
0.174832	2.41907
0.221973	2.60072
0.233997	2.75583
0.289428	2.79602
0.397851	3.13946
0.479016	3.3267
0.608387	3.42445
0.772449	3.68161
