Adsorption isotherm of Carbon Dioxide on Silica Gel
DOI: 10.1021/Je800900a
Adsorbate Carbon Dioxide: InChIKey CURLTUGMZLYLDI-UHFFFAOYSA-N
Temperature: 298 K
Tabular data in the source: 0
pressure (bar)	uptake (mmol/g)
0.00198166	0.00437109
0.00440113	0.00799374
0.01	0.0158027
0.0285395	0.0470219
0.097746	0.151253
0.168935	0.241359
0.260519	0.356285
0.401754	0.496089
0.605592	0.704336
0.760659	0.839248
