Adsorption isotherm of Carbon Dioxide on Zeolite 13X
DOI: 10.1021/Je800900a
Adsorbate Carbon Dioxide: InChIKey CURLTUGMZLYLDI-UHFFFAOYSA-N
Temperature: 423 K
Tabular data in the source: 0
pressure (bar)	uptake (mmol/g)
0.00012692	0.0106028
0.00014771	0.011576
0.000171906	0.0128248
0.000200069	0.0142082
0.000232841	0.0157409
0.000270982	0.0174393
0.00031537	0.0193206
0.000367037	0.0214047
0.000427159	0.0237137
0.00049713	0.0262718
0.000591235	0.0291058
0.000688098	0.0322456
0.000800811	0.0352055
0.000931987	0.0390032
0.00110842	0.0432106
0.00129	0.047177
0.00150131	0.0522661
0.00174724	0.0570637
0.00207801	0.0623003
0.0024184	0.068019
0.00287623	0.0753564
0.00334739	0.0822716
0.00389572	0.0911486
0.00463321	0.099513
0.00551031	0.108647
0.00641297	0.118619
0.00762699	0.129505
0.00907083	0.143476
0.010788	0.156644
0.0125552	0.171022
0.015935	0.189471
0.0189516	0.206861
0.0225393	0.225847
0.0268062	0.246575
0.0325792	0.269206
0.0387467	0.293914
0.0513556	0.335293
0.0610776	0.366066
0.07264	0.393857
0.088284	0.430006
0.107298	0.462652
0.139165	0.520118
0.169138	0.559604
0.201155	0.602089
0.244478	0.6478
0.297126	0.69698
0.353378	0.749894
0.429477	0.806826
0.521975	0.868079
0.634381	0.920414
0.77101	0.990291
