Adsorption isotherm of Carbon Dioxide on Zeolite 13X
DOI: 10.1021/Je800900a
Adsorbate Carbon Dioxide: InChIKey CURLTUGMZLYLDI-UHFFFAOYSA-N
Temperature: 323 K
Tabular data in the source: 0
pressure (bar)	uptake (mmol/g)
0.000104429	0.070039
0.000121537	0.0764663
0.000144544	0.0847169
0.000168221	0.0924911
0.000200069	0.102469
0.000232841	0.111874
0.000270982	0.123942
0.000322285	0.137313
0.000375077	0.149916
0.000446077	0.166088
0.000519147	0.181332
0.000617433	0.200894
0.000734311	0.219332
0.000854594	0.239462
0.00101639	0.261441
0.0012088	0.285435
0.00143763	0.311633
0.00170978	0.340236
0.00203346	0.399664
0.00247139	0.405556
0.00293924	0.442778
0.00349566	0.483417
0.00415742	0.527786
0.00494445	0.551474
0.00563103	0.602089
0.00669703	0.65735
0.00813932	0.707255
0.00968016	0.772168
0.0115127	0.795104
0.0128302	0.868079
0.0155934	0.933983
0.0185453	1.00489
0.0225393	1.08118
0.0279936	1.11329
0.0311974	1.21547
0.0379161	1.30775
0.0450939	1.40704
0.0548055	1.49186
0.0637832	1.60512
0.0775197	1.67717
0.0942146	1.8045
0.107298	1.97012
0.127609	1.99916
0.155092	2.08889
0.192624	2.21482
0.244478	2.34835
0.297126	2.52663
0.361119	2.67896
0.438884	2.7992
0.545092	2.96796
0.662491	3.10117
0.805156	3.28813
