Adsorption isotherm of Carbon Dioxide on Silica Gel
DOI: 10.1021/Je800900a
Adsorbate Carbon Dioxide: InChIKey CURLTUGMZLYLDI-UHFFFAOYSA-N
Temperature: 298 K
Tabular data in the source: 0
pressure (bar)	uptake (mmol/g)
0.000134496	0.000249724
0.000157768	0.000291823
0.000180896	0.000334434
0.00020741	0.000390814
0.000243299	0.000456688
0.000278959	0.000523383
0.000327228	0.000599805
0.000375198	0.000700922
0.000440109	0.000803267
0.000504626	0.000938685
0.000591943	0.00109691
0.000678703	0.0012571
0.000760659	0.0014129
0.000892278	0.0016192
0.00102306	0.00189217
0.00120007	0.00216845
0.00137599	0.00253402
0.00161407	0.00296115
0.00185066	0.0033936
0.00227214	0.00412306
0.00266528	0.0047252
0.00305597	0.00552166
0.00350392	0.00645253
0.00504626	0.00898442
0.00578597	0.0104988
0.00678708	0.0120321
0.00778196	0.0137889
0.0104665	0.0184663
0.0122775	0.0211631
0.0140772	0.0247303
0.0165128	0.028342
0.01937	0.032481
0.0227214	0.037956
0.0319853	0.0528494
0.0375195	0.0605676
0.0430193	0.0707766
0.0504626	0.0811129
0.0591939	0.0929587
0.0694359	0.108628
0.0796141	0.124491
0.109547	0.163505
0.128502	0.187382
0.150737	0.218968
0.189335	0.26604
0.222091	0.304891
0.291978	0.385145
0.342492	0.441387
0.450267	0.54682
0.528165	0.626672
0.678703	0.77636
0.833278	0.907229
