Adsorption isotherm of Carbon Dioxide on Zeolite 13X
DOI: 10.1021/Je800900a
Adsorbate Carbon Dioxide: InChIKey CURLTUGMZLYLDI-UHFFFAOYSA-N
Temperature: 298 K
Tabular data in the source: 0
pressure (bar)	uptake (mmol/g)
0.000673349	0.411535
0.00156781	0.567854
0.00415742	0.83079
0.0105567	1.21547
0.0279936	1.8045
0.0548055	2.34835
0.11205	2.96796
0.161961	3.33661
0.303634	3.9194
