Adsorption isotherm of Water on Silica Gel
DOI: 10.1021/Je800900a
Adsorbate Water: InChIKey XLYOFNOQVPJJNP-UHFFFAOYSA-N
Temperature: 298 K
Tabular data in the source: 0
pressure (bar)	uptake (mmol/g)
1.36235e-05	0.119483
1.62566e-05	0.134796
1.89749e-05	0.149473
2.21473e-05	0.168629
2.64277e-05	0.19024
3.08468e-05	0.21462
3.60039e-05	0.23799
4.20243e-05	0.26849
5.01464e-05	0.302898
5.85315e-05	0.335881
6.83172e-05	0.378926
8.15211e-05	0.427487
9.51525e-05	0.474035
0.000111061	0.525652
0.000132526	0.603322
0.000154686	0.669015
0.000184582	0.754753
0.000215442	0.836938
0.000306768	1.0652
0.000366058	1.20171
0.000427268	1.33256
0.000509835	1.50334
0.000595086	1.66704
0.000710101	1.88068
0.000989008	2.47751
0.00118016	2.60891
0.00140825	2.94326
0.00164372	3.26374
0.0019614	3.68201
0.00228935	4.0132
0.00273181	4.52752
0.00507033	6.72868
0.00605027	7.46136
0.00706189	8.27382
0.00842674	9.33416
0.0107442	10.7135
0.0125407	11.8798
0.0149644	13.4023
0.0182554	14.8618
0.0217836	16.4801
0.0254259	18.2747
0.0310175	20.9749
0.0370122	22.4709
