Adsorption isotherm of Carbon Dioxide on Zeolite 5A
DOI: 10.1021/Je800900a
Adsorbate Carbon Dioxide: InChIKey CURLTUGMZLYLDI-UHFFFAOYSA-N
Temperature: 448 K
Tabular data in the source: 0
pressure (bar)	uptake (mmol/g)
0.0263745	0.122476
0.0343696	0.141561
0.0424972	0.150003
0.0583911	0.178473
0.0781331	0.209293
0.104503	0.260072
0.139804	0.313946
0.177403	0.362867
0.231153	0.425531
0.301127	0.513679
0.392148	0.647621
0.511364	0.686243
0.666147	0.828398
0.867981	0.971452
