Adsorption isotherm of Carbon Dioxide on Zeolite 5A
DOI: 10.1021/Je800900a
Adsorbate Carbon Dioxide: InChIKey CURLTUGMZLYLDI-UHFFFAOYSA-N
Temperature: 273 K
Tabular data in the source: 0
pressure (bar)	uptake (mmol/g)
5.35094e-05	0.238428
7.96086e-05	0.292018
0.000103705	0.352509
0.000171526	0.457485
0.000248496	0.56031
0.000457078	0.737777
0.000886748	0.957485
0.00154744	1.17269
0.00308368	1.47846
0.00630994	1.89117
0.0136168	2.41907
0.0257356	2.96277
0.0601688	3.62867
0.144494	4.31738
0.273395	4.57485
