Adsorption isotherm of Water on Zeolite 13X
DOI: 10.1021/Je800900a
Adsorbate Water: InChIKey XLYOFNOQVPJJNP-UHFFFAOYSA-N
Temperature: 348 K
Tabular data in the source: 0
pressure (bar)	uptake (mmol/g)
0.000118103	2.67531
0.000519541	4.65155
0.0012002	6.25301
0.00408059	8.40584
0.00444651	8.56961
0.010272	10.1295
