Adsorption isotherm of Carbon Dioxide on Zeolite 5A
DOI: 10.1021/Je800900a
Adsorbate Carbon Dioxide: InChIKey CURLTUGMZLYLDI-UHFFFAOYSA-N
Temperature: 273 K
Tabular data in the source: 0
pressure (bar)	uptake (mmol/g)
1.18e-05	0.0971449
1.67e-05	0.117269
2.23e-05	0.13752
2.84e-05	0.161268
3.6e-05	0.186397
4.69e-05	0.215443
6.27e-05	0.252648
8.85e-05	0.304984
0.000121602	0.368161
0.000162753	0.419413
0.00021209	0.484769
0.000276408	0.552253
0.000379831	0.647621
0.000536006	0.759457
0.000756572	0.865181
0.00109631	1.02939
0.00163177	1.18979
0.0024285	1.39526
0.00391389	1.66007
0.00683084	2.00395
0.0110114	2.31622
0.0172867	2.63866
0.0271381	3.00599
0.0437567	3.37522
0.0805566	3.95807
0.1299	4.38035
0.204	4.77799
0.346929	5.28774
0.544816	5.76774
0.790169	6.11173
