Adsorption isotherm of Carbon Dioxide on Zeolite 13X
DOI: 10.1021/Je800900a
Adsorbate Carbon Dioxide: InChIKey CURLTUGMZLYLDI-UHFFFAOYSA-N
Temperature: 248 K
Tabular data in the source: 0
pressure (bar)	uptake (mmol/g)
0.000113886	0.629113
0.000135444	0.686853
0.000161087	0.738999
0.000195776	0.806826
0.000232841	0.880877
0.000276917	0.947752
0.000329344	1.03474
0.000391688	1.11329
0.000476047	1.21547
0.000566161	1.30775
0.000688098	1.40704
0.000818352	1.51386
0.000994604	1.62879
0.0012088	1.75244
0.00143763	1.88549
0.00190546	2.05854
0.00231583	2.18264
0.00281457	2.34835
0.00334739	2.52663
0.00398107	2.60168
0.00453389	2.92484
0.00539219	2.88235
0.00655347	3.05611
0.00796483	3.24036
0.00989223	3.43571
0.0115127	3.58992
0.0139921	3.75105
0.017378	3.9194
0.0211206	4.21697
0.0230331	4.21697
0.0279936	4.40624
0.0347677	4.60401
0.0422554	4.88156
0.0524807	5.02656
0.0637832	5.25217
0.079218	5.48791
0.0962784	5.73423
0.119578	5.90454
0.145328	6.07992
0.180497	6.26051
0.219371	6.54151
0.272452	6.73581
0.331131	6.93589
0.411263	7.1419
0.499827	7.35402
0.607477	7.46244
0.754484	7.6841
0.916959	8.02899
