Adsorption isotherm of Carbon Dioxide on Zeolite 13X
DOI: 10.1021/Je800900a
Adsorbate Carbon Dioxide: InChIKey CURLTUGMZLYLDI-UHFFFAOYSA-N
Temperature: 398 K
Tabular data in the source: 0
pressure (bar)	uptake (mmol/g)
0.000104429	0.014002
0.000121537	0.0155124
0.000141446	0.0171858
0.000164615	0.0190397
0.00019158	0.0210936
0.000222967	0.023369
0.00025949	0.0258905
0.000301995	0.0286834
0.000351463	0.0317775
0.000418004	0.0352055
0.000486474	0.0390032
0.000566161	0.0425834
0.000658901	0.047177
0.000783646	0.0522661
0.000912011	0.0570637
0.00106141	0.0632193
0.00126234	0.070039
0.00146913	0.0764663
0.00174724	0.0834853
0.00207801	0.0924911
0.0024184	0.10098
0.00287623	0.111874
0.00334739	0.122142
0.00398107	0.133352
0.00463321	0.145591
0.00551031	0.158954
0.00655347	0.176101
0.00779408	0.192264
0.00926955	0.222566
0.0112659	0.229176
0.0131113	0.25021
0.015935	0.273175
0.0185453	0.298247
0.0225393	0.32089
0.0268062	0.350342
0.0311974	0.382496
0.0379161	0.411535
0.0450939	0.442778
0.0548055	0.483417
0.0695589	0.535567
0.0827269	0.576226
0.104998	0.6478
0.124873	0.676874
0.148511	0.728263
0.180497	0.783552
0.229087	0.855467
0.278426	0.920414
0.338384	0.990291
0.402448	1.04999
0.489114	1.12971
0.594456	1.19782
0.72247	1.28875
0.878072	1.36645
