Adsorption isotherm of Carbon Dioxide on Zeolite 5A
DOI: 10.1021/Je800900a
Adsorbate Carbon Dioxide: InChIKey CURLTUGMZLYLDI-UHFFFAOYSA-N
Temperature: 348 K
Tabular data in the source: 0
pressure (bar)	uptake (mmol/g)
0.00134106	0.139526
0.00321229	0.231622
0.00465527	0.27162
0.00606577	0.318526
0.00951304	0.413382
0.0134216	0.499014
0.0204993	0.638309
0.0313093	0.816488
0.0441881	0.943719
0.0693317	1.15583
0.108783	1.41561
0.161879	1.68428
0.234596	1.97514
0.340056	2.2501
0.479877	2.63866
0.659857	2.83681
