Adsorption isotherm of Carbon Dioxide on Silica Gel
DOI: 10.1021/Je800900a
Adsorbate Carbon Dioxide: InChIKey CURLTUGMZLYLDI-UHFFFAOYSA-N
Temperature: 283 K
Tabular data in the source: 0
pressure (bar)	uptake (mmol/g)
0.000678703	0.00208564
0.00212194	0.00620598
0.00440113	0.0117999
0.01	0.0267338
0.0260521	0.0735885
0.107078	0.26091
0.222091	0.477141
0.411017	0.77636
