Adsorption isotherm of Water on Silica Gel
DOI: 10.1021/Je800900a
Adsorbate Water: InChIKey XLYOFNOQVPJJNP-UHFFFAOYSA-N
Temperature: 323 K
Tabular data in the source: 0
pressure (bar)	uptake (mmol/g)
0.000293515	0.434915
0.00115438	0.960602
0.00364042	2.01483
0.0190799	5.10774
