Adsorption isotherm of Carbon Dioxide on Silica Gel
DOI: 10.1021/Je800900a
Adsorbate Carbon Dioxide: InChIKey CURLTUGMZLYLDI-UHFFFAOYSA-N
Temperature: 328 K
Tabular data in the source: 0
pressure (bar)	uptake (mmol/g)
0.00131466	0.00123285
0.00383847	0.0030194
0.01	0.00799374
0.0285395	0.0203549
0.17283	0.110764
0.291978	0.183768
0.450267	0.26604
0.619555	0.356285
0.852491	0.477141
