Adsorption isotherm of Carbon Dioxide on Zeolite 13X
DOI: 10.1021/Je800900a
Adsorbate Carbon Dioxide: InChIKey CURLTUGMZLYLDI-UHFFFAOYSA-N
Temperature: 228 K
Tabular data in the source: 0
pressure (bar)	uptake (mmol/g)
0.00203346	3.53777
0.00424849	4.27914
0.0117649	4.88156
