Adsorption isotherm of Water on Zeolite 13X
DOI: 10.1021/Je800900a
Adsorbate Water: InChIKey XLYOFNOQVPJJNP-UHFFFAOYSA-N
Temperature: 298 K
Tabular data in the source: 0
pressure (bar)	uptake (mmol/g)
1.32e-05	4.09008
1.54e-05	4.27844
1.79e-05	4.47546
2.03e-05	4.71177
2.36e-05	4.96056
2.68e-05	5.189
3.12e-05	5.46299
3.55e-05	5.71456
4.12e-05	6.01631
4.79e-05	6.29337
5.57e-05	6.54097
6.47e-05	6.8422
7.69e-05	7.1114
8.93e-05	7.3912
0.000106082	7.68201
0.000125959	7.98427
0.000156124	8.29839
0.000185383	8.56961
0.000224895	8.90679
0.000272835	9.19786
0.000323959	9.49848
0.000393016	9.80889
0.000466659	10.0644
0.000566122	10.3269
0.0006868	10.596
0.000851275	10.872
0.00103273	11.1555
0.00125286	11.3729
0.00151991	11.5944
0.0018839	11.7444
0.00233506	11.9732
0.00283279	12.2065
0.0035112	12.3646
0.004543	12.6867
0.00563097	12.7688
0.00683123	12.9339
0.00846718	13.1015
0.010272	13.2712
0.012732	13.3567
0.015781	13.4428
0.0191448	13.617
0.0237296	13.7047
0.0294124	13.793
0.0364562	13.8823
