Adsorption isotherm of Carbon Dioxide on Zeolite 13X
DOI: 10.1021/Je800900a
Adsorbate Carbon Dioxide: InChIKey CURLTUGMZLYLDI-UHFFFAOYSA-N
Temperature: 273 K
Tabular data in the source: 0
pressure (bar)	uptake (mmol/g)
0.000104429	0.269206
0.000121537	0.293914
0.000144544	0.325621
0.000171906	0.355506
0.000200069	0.388135
0.000237941	0.423759
0.000282983	0.462652
0.000336558	0.505115
0.000400267	0.551474
0.000476047	0.602089
0.000566161	0.65735
0.000673349	0.707255
0.000800811	0.772168
0.00106141	0.868079
0.00126234	0.947752
0.00150131	1.01971
0.00182463	1.09712
0.00221759	1.18041
0.00300363	1.3466
0.00365051	1.44883
0.00434157	1.55882
0.00527659	1.67717
0.00641297	1.77828
0.00831764	1.94149
0.0101089	2.08889
0.012286	2.21482
0.014932	2.34835
0.0197911	2.56388
0.0240534	2.71845
0.0292336	2.88235
0.0363078	3.05611
0.0502546	3.33661
0.0610776	3.48637
0.0809534	3.75105
0.0983877	3.97719
0.122197	4.09532
0.148511	4.34222
0.210063	4.60401
0.260898	4.81064
0.317088	5.02656
0.385372	5.25217
0.47863	5.40818
0.581715	5.65092
0.72247	5.81877
0.878072	5.99159
