Adsorption isotherm of Carbon Dioxide on Silica Gel
DOI: 10.1021/Je800900a
Adsorbate Carbon Dioxide: InChIKey CURLTUGMZLYLDI-UHFFFAOYSA-N
Temperature: 313 K
Tabular data in the source: 0
pressure (bar)	uptake (mmol/g)
0.000134496	0.0001725
0.000157768	0.000197688
0.000180896	0.000231015
0.000212192	0.000264746
0.000243299	0.000309378
0.000285397	0.000361526
0.000327228	0.000414324
0.000383849	0.000484161
0.000440109	0.000554868
0.000516262	0.000648396
0.000591943	0.000757687
0.000694352	0.00086834
0.000796141	0.00101471
0.000933899	0.00116289
0.00109548	0.00135891
0.00125606	0.001588
0.00144018	0.00181987
0.00168936	0.00208564
0.00227214	0.00284807
0.00266528	0.00326392
0.00305597	0.00374059
0.00358472	0.00437109
0.00450262	0.00541527
0.00516263	0.00632805
0.00605589	0.0072522
0.00710371	0.00847462
0.008145	0.00971225
0.00955428	0.0113493
0.0120007	0.0140602
0.0140772	0.0164301
0.0161406	0.0188296
0.0189334	0.0215794
0.0222093	0.0252168
0.0254648	0.0288995
0.0298709	0.0337707
0.0366738	0.0410308
0.0430193	0.0470219
0.0504626	0.054949
0.0578597	0.0629724
0.0678708	0.0721689
0.0796141	0.0827085
0.0933893	0.0966496
0.117303	0.117427
0.137597	0.137221
0.161406	0.154227
0.185067	0.176749
0.222091	0.206543
0.260519	0.236705
0.305598	0.271271
0.401754	0.342676
0.47127	0.385145
0.648455	0.496089
0.760659	0.568535
0.955432	0.66437
