Adsorption isotherm of Carbon Dioxide on Zeolite 5A
DOI: 10.1021/Je800900a
Adsorbate Carbon Dioxide: InChIKey CURLTUGMZLYLDI-UHFFFAOYSA-N
Temperature: 228 K
Tabular data in the source: 0
pressure (bar)	uptake (mmol/g)
5.28628e-05	1.15583
9.22189e-05	1.47846
0.00024615	1.91875
0.000623132	2.41907
0.00124176	3.04984
0.00368728	3.84509
0.0196545	4.77799
