Adsorption isotherm of Carbon Dioxide on Zeolite 5A
DOI: 10.1021/Je800900a
Adsorbate Carbon Dioxide: InChIKey CURLTUGMZLYLDI-UHFFFAOYSA-N
Temperature: 298 K
Tabular data in the source: 0
pressure (bar)	uptake (mmol/g)
0.000104429	0.131415
0.000121537	0.145591
0.000144544	0.161297
0.000168221	0.176101
0.000200069	0.192264
0.000232841	0.20991
0.000276917	0.232555
0.000322285	0.253899
0.000383292	0.281289
0.000455848	0.307106
0.000542151	0.335293
0.000630957	0.366066
0.000766849	0.399664
0.000892463	0.436346
0.00123528	0.512562
0.00174724	0.593342
0.00207801	0.6478
0.0026374	0.717682
0.00313669	0.783552
0.00443669	0.907041
0.00527659	0.975903
0.00641297	1.06547
0.0110243	1.30775
0.0133986	1.40704
0.0162841	1.49186
0.0197911	1.60512
0.0286069	1.8045
0.0340224	1.94149
0.0536305	2.34835
0.0666084	2.38297
0.0809534	2.52663
0.0983877	2.67896
0.130404	2.88235
0.158489	3.05611
0.196843	3.19328
0.239232	3.33661
0.310284	3.58992
0.521975	4.03582
0.878072	4.53712
