Adsorption isotherm of Water on Ferrerite
DOI: 10.1039/B807471b
Adsorbate Water: InChIKey XLYOFNOQVPJJNP-UHFFFAOYSA-N
Temperature: 300 K
Tabular data in the source: 0
pressure (bar)	uptake (molecules/unitcell)
504.027	0.293505
1517.81	0.511993
1797.47	1.16745
2013.05	2.25989
2147.05	5.24589
2292.71	8.81451
2502.46	11.8005
2700.55	13.3299
3003.52	15.1506
3999.82	17.1899
