Adsorption isotherm of Water on Ferrerite
DOI: 10.1039/B807471b
Adsorbate Water: InChIKey XLYOFNOQVPJJNP-UHFFFAOYSA-N
Temperature: 300 K
Tabular data in the source: 0
pressure (bar)	uptake (molecules/unitcell)
435.536	0.202863
741.418	0.312107
1152.17	1.40454
1274.53	2.38774
1318.22	2.49698
1423.1	4.02639
1423.1	5.11883
1571.67	8.83312
1571.67	9.70706
1728.98	10.4718
1798.9	11.455
2017.38	12.0012
2043.6	12.5474
2384.44	13.0936
2471.84	12.6566
3031.17	13.5306
