Adsorption isotherm of Water on Silicalite MFI
DOI: 10.1039/B807471b
Adsorbate Water: InChIKey XLYOFNOQVPJJNP-UHFFFAOYSA-N
Temperature: 300 K
Tabular data in the source: 0
pressure (bar)	uptake (molecules/unitcell)
7.30036	0.202863
898.729	0.530594
1012.34	0.639838
1099.74	0.749082
1213.35	1.18606
1230.83	5.66505
1309.49	35.9256
1405.62	37.3457
1510.49	38.4382
2017.38	41.2785
3013.69	44.9928
