Adsorption isotherm of Water on Silicalite MFI
DOI: 10.1039/B807471b
Adsorbate Water: InChIKey XLYOFNOQVPJJNP-UHFFFAOYSA-N
Temperature: 300 K
Tabular data in the source: 0
pressure (bar)	uptake (molecules/unitcell)
16.0399	0.530594
120.914	0.312107
365.62	0.749082
566.628	0.858325
688.981	3.69866
802.594	5.99278
820.073	2.16925
881.25	5.44656
898.729	17.5726
986.124	21.1777
1012.34	29.4802
1038.56	27.8415
1125.96	32.2113
1239.57	32.4298
1589.15	35.5978
1702.76	37.1272
2026.12	37.455
