Adsorption isotherm of Water on Ferrerite
DOI: 10.1039/B807471b
Adsorbate Water: InChIKey XLYOFNOQVPJJNP-UHFFFAOYSA-N
Temperature: 300 K
Tabular data in the source: 0
pressure (bar)	uptake (molecules/unitcell)
608.901	0.147847
1401.28	0.220676
1814.95	1.0218
2001.39	2.62404
2100.44	4.88174
2193.66	6.92096
2601.51	12.8929
2904.47	14.568
