Adsorption isotherm of Water on Silicalite MFI
DOI: 10.1039/B807471b
Adsorbate Water: InChIKey XLYOFNOQVPJJNP-UHFFFAOYSA-N
Temperature: 300 K
Tabular data in the source: 0
pressure (bar)	uptake (molecules/unitcell)
1150.75	1.24028
1197.36	34.3775
1261.45	35.9798
