Adsorption isotherm of Hydrogen on TiO2
DOI: 10.1021/ef4019004
Article source: Figure 6
Adsorbate Hydrogen: InChIKey UFHFLCQGNIYNRP-UHFFFAOYSA-N
Kind: experiment
Temperature: 373 K
Tabular data in the source: 0
pressure (bar)	uptake (mmol/g)
5.01	1.12
9.97	1.96
14.9	2.35
20.1	2.66
25	2.96
29.9	3.26
34.9	3.35
