Adsorption isotherm of Carbon Dioxide on TiO2
DOI: 10.1021/ef4019004
Article source: Figure 6
Adsorbate Carbon Dioxide: InChIKey CURLTUGMZLYLDI-UHFFFAOYSA-N
Kind: experiment
Temperature: 323 K
Tabular data in the source: 0
pressure (bar)	uptake (mmol/g)
5.07	1.99
10.1	2.93
15	4.02
20	5.1
25	5.89
30	6.58
35	7.79
