Adsorption isotherm of Carbon Dioxide, Hydrogen on TiO2
DOI: 10.1021/ef4019004
Article source: Figure 7
Adsorbate Carbon Dioxide: InChIKey CURLTUGMZLYLDI-UHFFFAOYSA-N
Adsorbate Hydrogen: InChIKey UFHFLCQGNIYNRP-UHFFFAOYSA-N
Kind: experiment
Temperature: 398 K
Tabular data in the source: 0
pressure (bar)	Carbon Dioxide fraction	Carbon Dioxide uptake (mmol/g)	Hydrogen fraction	Hydrogen uptake (mmol/g)	total uptake (mmol/g)
5.01	0.5	0.86	0.5	0.102	
10	0.5	1.48	0.5	0.283	
15	0.5	1.77	0.5	0.419	
20	0.5	1.89	0.5	0.566	
25	0.5	1.9	0.5	0.713	
30	0.5	1.96	0.5	0.86	
35	0.5	2.02	0.5	0.94	
