Adsorption isotherm of Carbon Dioxide, Hydrogen on TiO2
DOI: 10.1021/ef4019004
Article source: Figure 7
Adsorbate Carbon Dioxide: InChIKey CURLTUGMZLYLDI-UHFFFAOYSA-N
Adsorbate Hydrogen: InChIKey UFHFLCQGNIYNRP-UHFFFAOYSA-N
Kind: experiment
Temperature: 348 K
Tabular data in the source: 0
pressure (bar)	Carbon Dioxide fraction	Carbon Dioxide uptake (mmol/g)	Hydrogen fraction	Hydrogen uptake (mmol/g)	total uptake (mmol/g)
5.01	0.5	1.01	0.5	0.158	
10	0.5	1.8	0.5	0.487	
15	0.5	2.07	0.5	0.758	
20	0.5	2.28	0.5	0.974	
25	0.5	2.58	0.5	1.13	
30	0.5	2.75	0.5	1.31	
35	0.5	2.84	0.5	1.47	
