Adsorption isotherm of Carbon Dioxide on TiO2
DOI: 10.1021/ef4019004
Article source: Figure 6
Adsorbate Carbon Dioxide: InChIKey CURLTUGMZLYLDI-UHFFFAOYSA-N
Kind: experiment
Temperature: 298 K
Tabular data in the source: 0
pressure (bar)	uptake (mmol/g)
5.01	3.71
9.97	5.55
15	7.46
20	9.24
25	11.3
30	12.8
35	14.4
