Adsorption isotherm of Carbon Dioxide, Hydrogen on TiO2
DOI: 10.1021/ef4019004
Article source: Figure 7
Adsorbate Carbon Dioxide: InChIKey CURLTUGMZLYLDI-UHFFFAOYSA-N
Adsorbate Hydrogen: InChIKey UFHFLCQGNIYNRP-UHFFFAOYSA-N
Kind: experiment
Temperature: 373 K
Tabular data in the source: 0
pressure (bar)	Carbon Dioxide fraction	Carbon Dioxide uptake (mmol/g)	Hydrogen fraction	Hydrogen uptake (mmol/g)	total uptake (mmol/g)
5.01	0.5	0.951	0.5	0.136	
10	0.5	1.65	0.5	0.362	
15	0.5	1.97	0.5	0.543	
20	0.5	2.12	0.5	0.736	
25	0.5	2.22	0.5	0.906	
30	0.5	2.3	0.5	1.08	
35	0.5	2.38	0.5	1.17	
