Adsorption isotherm of Carbon Dioxide, Hydrogen on TiO2
DOI: 10.1021/ef4019004
Article source: Figure 7
Adsorbate Carbon Dioxide: InChIKey CURLTUGMZLYLDI-UHFFFAOYSA-N
Adsorbate Hydrogen: InChIKey UFHFLCQGNIYNRP-UHFFFAOYSA-N
Kind: experiment
Temperature: 298 K
Tabular data in the source: 0
pressure (bar)	Carbon Dioxide fraction	Carbon Dioxide uptake (mmol/g)	Hydrogen fraction	Hydrogen uptake (mmol/g)	total uptake (mmol/g)
5.01	0.5	1.68	0.5	0.283	
10	0.5	2.26	0.5	1.13	
15	0.5	2.99	0.5	1.57	
20	0.5	3.69	0.5	1.97	
25	0.5	3.94	0.5	2.08	
30	0.5	4.06	0.5	2.37	
35	0.5	4.2	0.5	2.54	
