Adsorption isotherm of Carbon Dioxide on TiO2
DOI: 10.1021/ef4019004
Article source: Figure 6
Adsorbate Carbon Dioxide: InChIKey CURLTUGMZLYLDI-UHFFFAOYSA-N
Kind: experiment
Temperature: 373 K
Tabular data in the source: 0
pressure (bar)	uptake (mmol/g)
5.01	1.75
9.97	2.48
15	3.08
20.1	3.68
25.1	4.2
30	4.89
34.9	5.52
