Adsorption isotherm of Hydrogen on TiO2
DOI: 10.1021/ef4019004
Article source: Figure 6
Adsorbate Hydrogen: InChIKey UFHFLCQGNIYNRP-UHFFFAOYSA-N
Kind: experiment
Temperature: 298 K
Tabular data in the source: 0
pressure (bar)	uptake (mmol/g)
5.01	1.27
9.97	2.63
15	3.47
19.9	4.05
25	4.53
29.9	4.86
35	5.16
