Adsorption isotherm of Carbon Dioxide, Hydrogen on TiO2
DOI: 10.1021/ef4019004
Article source: Figure 7
Adsorbate Carbon Dioxide: InChIKey CURLTUGMZLYLDI-UHFFFAOYSA-N
Adsorbate Hydrogen: InChIKey UFHFLCQGNIYNRP-UHFFFAOYSA-N
Kind: experiment
Temperature: 323 K
Tabular data in the source: 0
pressure (bar)	Carbon Dioxide fraction	Carbon Dioxide uptake (mmol/g)	Hydrogen fraction	Hydrogen uptake (mmol/g)	total uptake (mmol/g)
5.01	0.5	1.08	0.5	0.181	
10	0.5	1.97	0.5	0.679	
15	0.5	2.33	0.5	0.94	
20	0.5	2.67	0.5	1.2	
25	0.5	2.98	0.5	1.42	
30	0.5	3.15	0.5	1.56	
35	0.5	3.32	0.5	1.8	
