Adsorption isotherm of Hydrogen on TiO2
DOI: 10.1021/ef4019004
Article source: Figure 6
Adsorbate Hydrogen: InChIKey UFHFLCQGNIYNRP-UHFFFAOYSA-N
Kind: experiment
Temperature: 323 K
Tabular data in the source: 0
pressure (bar)	uptake (mmol/g)
5.01	1.15
10	2.05
15	2.48
20.1	2.9
25	3.26
30	3.53
35	3.89
