Adsorption isotherm of Argon on TFPPy-PDA-COF
DOI: 10.1002/chem.201904088
Article source: Figure 4a
Adsorbate Argon: InChIKey XKRFYHLGVUSROY-UHFFFAOYSA-N
Kind: experiment
Temperature: 87 K
Tabular data in the source: 0
pressure (bar)	uptake (cm3(STP)/g)
0.092434	492.664
0.118985	501.451
0.14795	517.793
0.176915	529.789
0.20588	540.111
0.234845	550.434
0.26381	558.97
0.292775	569.889
0.321739	577.035
0.350704	584.38
0.379669	591.527
0.408854	600.171
0.436794	609.459
0.466564	623.091
0.495529	629.84
0.524713	628.757
0.553239	636.337
0.582423	644.183
0.612047	648.952
0.640353	654.912
0.668513	663.72
0.696473	672.421
0.726041	678.079
0.754489	688.033
0.786902	695.52
0.813798	702.326
0.845521	710.536
0.872072	728.303
0.900233	736.244
0.929344	754.547
0.951726	763.242
0.968217	803.333
0.990733	863.333
0.074305	383.333
0.05404	301.111
0.029272	243.333
0.009007	174.444
0.011258	158.889
0.011258	134.444
0.011258	114.444
0.009007	96.6667
0.002252	45.5556
0.004503	27.7778
0.004503	10
0.092434	492.664
0.118985	525.686
0.14795	546.861
0.176915	557.978
0.20588	569.889
0.234845	579.02
0.26381	588.549
0.292775	594.107
0.321739	600.46
0.350704	609.195
0.379669	616.341
0.408634	624.679
0.437599	633.413
0.466564	642.148
0.495529	650.221
0.524494	656.441
0.553459	663.455
0.582423	670.337
0.611388	678.41
0.640353	685.159
0.669318	693.1
0.698283	699.453
0.727248	704.879
0.756213	710.04
0.785178	717.345
0.814142	727.721
0.843107	737.117
0.872072	750.885
0.901037	764.579
0.963951	842.961
0.992385	913.319
0.936693	792.222
0.076557	405.556
0.05404	314.444
