Adsorption isotherm of Argon on TFPPy-PyTTA-COF
DOI: 10.1002/chem.201904088
Article source: Figure 4c
Adsorbate Argon: InChIKey XKRFYHLGVUSROY-UHFFFAOYSA-N
Kind: experiment
Temperature: 87 K
Tabular data in the source: 0
pressure (bar)	uptake ()
0.069649	197.552
0.101977	209.764
0.135504	216.475
0.169519	225.304
0.204362	232.745
0.238133	240.956
0.271905	246.036
0.305676	250.777
0.339447	257.55
0.373218	264.322
0.406989	271.434
0.443441	273.24
0.472722	280.154
0.508303	290.398
0.542074	297.509
0.574398	298.999
0.610219	307.118
0.642784	312.748
0.677158	317.827
0.710929	324.261
0.744701	331.711
0.778472	337.468
0.812243	343.902
0.846014	352.03
0.879785	361.85
0.915164	372.273
0.947327	388.818
0.973379	405.196
0.042801	187.983
0.011355	174.249
0.007861	148.498
0.011355	129.614
0.006114	112.446
0.00262	86.6953
0.00262	57.5107
0.00262	45.4936
0.000873	26.6094
0.000873	9.44206
0.996654	442.06
1.00714	538.197
0.016209	221.045
0.04998	223.212
0.083751	231.717
0.117522	243.127
0.151293	247.955
0.185064	254.276
0.218836	258.45
0.252607	261.467
0.286378	270.119
0.320149	280.588
0.35392	294.123
0.387691	297.238
0.421462	299.405
0.455234	304.079
0.489005	312.07
0.522776	317.895
0.556547	324.498
0.590318	330.075
0.624089	337.017
0.65786	341.08
0.691632	346.273
0.725403	351.104
0.759174	356.263
0.792945	364.277
0.826716	374.131
0.860487	384.381
0.894258	397.091
0.929839	416.297
0.959169	431.012
0.99316	481.545
