Adsorption isotherm of Carbon Dioxide on CHA
DOI: 10.1007/s10450-021-00331-x
Article source: Figure 3
Adsorbate Carbon Dioxide: InChIKey CURLTUGMZLYLDI-UHFFFAOYSA-N
Kind: experiment
Temperature: 273 K
Tabular data in the source: 0
pressure (bar)	uptake (cm3(STP)/g)
0.012281	1.40708
0.014327	4.2386
0.012281	6.50623
0.020468	9.90032
0.022514	13.0151
0.022514	16.1313
0.020468	18.6822
0.016374	19.818
0.020468	24.3479
0.022514	25.4797
0.022514	29.4457
0.022514	31.9953
0.032748	46.1529
0.038888	48.4152
0.053216	50.1056
0.065496	52.0805
0.088011	53.7656
0.108478	55.1686
0.128946	56.855
0.149413	57.4082
0.180115	58.8046
0.208769	59.919
0.231284	59.621
0.30292	60.4241
0.356136	61.2392
0.397071	61.2125
0.470754	61.731
0.513736	62.2695
0.552624	63.3773
0.59356	63.3505
0.636541	63.6058
0.702038	64.4128
0.759347	64.942
0.804376	65.4792
0.847357	65.7344
0.9149	65.6903
0.953789	66.7981
0.974256	67.068
0.992677	67.056
