Adsorption isotherm of Water on LTA
DOI: 10.1007/s10450-021-00331-x
Article source: Figure 8
Adsorbate Water: InChIKey XLYOFNOQVPJJNP-UHFFFAOYSA-N
Kind: experiment
Temperature: 303 K
Tabular data in the source: 0
pressure (bar)	uptake (mmol/g)
0.000343	2.83049
0.000575	8.26401
0.001032	8.67445
0.001412	8.94799
0.00164	9.13037
0.002094	9.3125
0.002473	9.49472
0.004434	9.90344
0.006469	10.2208
0.008278	10.5383
0.010387	10.8099
0.015281	11.2153
0.020247	11.4379
0.025441	11.8429
0.030259	12.2941
0.035166	13.6127
0.038266	14.705
0.000342	2.78483
0.000743	9.45103
0.001275	9.86139
0.002485	10.3166
0.004446	10.7253
0.006256	11.0886
0.00829	11.3146
0.010098	11.5408
0.015216	11.9003
0.020259	12.2598
0.025303	12.7107
0.0305	13.2983
0.035027	14.3434
0.038281	15.7552
0.040171	16.3923
