Adsorption isotherm of Nitrogen on LTA
DOI: 10.1007/s10450-021-00331-x
Article source: Figure 2
Adsorbate Nitrogen: InChIKey IJGRMHOSHXDMSA-UHFFFAOYSA-N
Kind: experiment
Temperature: 77 K
Tabular data in the source: 0
pressure (bar)	uptake (cm3(STP)/g)
0.009109	6.33272
0.009109	6.33272
0.009109	6.33272
0.012635	7.03449
0.022955	7.02732
0.033446	8.42848
0.040326	8.42369
0.047377	9.82725
0.055977	9.82127
0.057698	9.82007
0.107921	12.6021
0.161076	11.1567
0.209409	12.5315
0.259463	13.9052
0.311152	14.5735
0.362841	15.2418
0.41298	17.3196
0.461144	17.2861
0.514723	19.3616
0.561167	19.3293
0.614661	20.7006
0.666435	22.073
0.714853	24.1521
0.763272	26.2311
0.81874	29.7137
0.866032	36.7231
0.920205	43.7277
0.972378	62.7055
1.01166	74.65
0.061647	14.0427
0.10809	14.0104
0.156085	12.5686
0.205969	12.5339
0.256193	15.3159
0.311492	17.3902
0.366367	15.9436
0.416505	18.0214
0.464754	18.6921
0.518502	22.1759
0.566751	22.8466
0.614831	22.1089
0.663249	24.1879
0.716997	27.6717
0.768941	30.4525
0.819588	36.7553
0.867135	45.8772
0.922325	61.3318
0.974862	69.0418
1.00487	75.359
