Adsorption isotherm of Nitrogen on CHA
DOI: 10.1007/s10450-021-00331-x
Article source: Figure 2
Adsorbate Nitrogen: InChIKey IJGRMHOSHXDMSA-UHFFFAOYSA-N
Kind: experiment
Temperature: 77 K
Tabular data in the source: 0
pressure (bar)	uptake (cm3(STP)/g)
0.013228	11.9637
0.016135	21.8208
0.022568	32.3797
0.024094	45.0547
0.025366	55.6172
0.026214	62.6589
0.025596	71.8142
0.025233	83.0821
0.026081	90.1237
0.031665	93.641
0.04774	98.5594
0.06906	104.178
0.081271	105.578
0.115928	107.667
0.117733	108.37
0.138544	109.764
0.154026	109.753
0.160906	109.748
0.174837	111.147
0.183522	111.845
0.200724	111.833
0.229882	111.109
0.252159	110.389
0.283291	111.776
0.304102	113.17
0.328523	115.97
0.356131	116.655
0.373332	116.643
0.402574	116.623
0.429927	115.195
0.452289	115.18
0.499072	117.964
0.519883	119.358
0.54577	120.044
0.566412	120.03
0.588774	120.014
0.618016	119.994
0.642268	121.386
0.6648	122.778
0.690856	124.873
0.723624	125.554
0.742545	125.541
0.763357	126.935
0.791048	128.324
0.81547	131.124
0.848407	133.214
0.870938	134.607
0.905596	136.696
0.917891	138.8
0.926831	141.61
0.944796	147.936
0.966455	156.372
0.989665	163.398
1.00066	169.024
1.01406	180.282
1.01516	189.436
1.01686	203.52
1.02295	211.262
1.02363	216.895
1.02628	224.64
1.03977	236.602
1.04028	240.827
0.031835	95.0493
0.290087	111.067
0.340395	114.553
0.388474	113.816
0.445408	115.184
0.476371	115.163
0.495462	116.558
0.526849	120.057
0.554286	119.334
0.575013	120.024
0.595994	122.826
0.616551	122.108
0.651038	122.788
0.67546	125.588
0.706761	128.383
0.746494	129.764
0.781406	133.965
0.800667	136.768
0.823453	140.274
0.849933	145.889
0.87427	147.985
0.907376	151.483
0.924917	154.288
0.937297	157.096
0.953287	161.31
0.977515	176.786
0.990488	184.524
1.00183	192.967
1.00817	202.821
1.01983	228.165
1.04078	245.052
1.04254	273.924
