Adsorption isotherm of Water on CHA
DOI: 10.1007/s10450-021-00331-x
Article source: Figure 8
Adsorbate Water: InChIKey XLYOFNOQVPJJNP-UHFFFAOYSA-N
Kind: experiment
Temperature: 303 K
Tabular data in the source: 0
pressure (bar)	uptake (mmol/g)
0.000396	0.280788
0.000577	3.62899
0.000784	5.32613
0.000949	5.65554
0.001422	5.93633
0.001662	6.21821
0.002135	6.499
0.002764	6.82622
0.004863	7.14651
0.006729	7.42073
0.008826	7.69385
0.010454	7.78052
0.015332	7.89901
0.020458	8.53521
0.025416	8.74767
0.030462	9.28991
0.035528	10.4924
0.038517	12.0821
0.040452	14.6201
0.000731	3.62826
0.00072	5.75096
0.001117	6.07927
0.001752	6.59515
0.00316	7.10737
0.004798	7.52417
0.006272	7.65873
0.008603	7.97792
0.010623	8.25141
0.015739	8.55747
0.020856	8.91069
0.025822	9.35897
0.030483	9.99735
0.035557	11.4357
0.040537	14.8556
