Adsorption isotherm of Carbon Dioxide on CHA-A35
DOI: 10.1007/s10450-021-00331-x
Article source: Figure 3
Adsorbate Carbon Dioxide: InChIKey CURLTUGMZLYLDI-UHFFFAOYSA-N
Kind: experiment
Temperature: 273 K
Tabular data in the source: 0
pressure (bar)	uptake (cm3(STP)/g)
0.012281	1.40708
0.016374	4.52055
0.018421	6.50222
0.016374	8.48656
0.016374	9.6197
0.016374	11.0361
0.016374	11.886
0.020468	13.8663
0.022514	14.9981
0.028655	16.6938
0.032748	18.6742
0.036842	22.9208
0.047075	24.6138
0.059356	26.5888
0.067543	27.7166
0.088011	29.403
0.108478	30.806
0.114618	31.0853
0.153507	32.7596
0.204676	33.5761
0.247658	34.9645
0.300873	35.4963
0.356136	36.8766
0.407305	38.2597
0.446193	39.0841
0.507596	39.8939
0.550578	40.4324
0.603793	41.2475
0.648822	42.068
0.724552	42.8684
0.765487	43.4083
0.82075	43.9387
0.867825	44.4746
0.9149	44.7271
0.961976	45.8295
0.988584	46.0955
1.007	46.3667
