Adsorption isotherm of Carbon Dioxide on LTA
DOI: 10.1007/s10450-021-00331-x
Article source: Figure 3
Adsorbate Carbon Dioxide: InChIKey CURLTUGMZLYLDI-UHFFFAOYSA-N
Kind: experiment
Temperature: 273 K
Tabular data in the source: 0
pressure (bar)	uptake (cm3(STP)/g)
0.004094	1.69571
0.00614	7.64338
0.00614	10.7595
0.00614	14.159
0.00614	15.5754
0.00614	17.8417
0.00614	19.2581
0.008187	20.9565
0.012281	23.2201
0.012281	24.6365
0.014327	26.0516
0.016374	27.75
0.016374	31.4327
0.016374	33.699
0.016374	36.2486
0.018421	38.2303
0.020468	39.6454
0.022514	41.3437
0.026608	43.0408
0.028655	44.1726
0.034795	48.7012
0.042982	50.6788
0.051169	52.0899
0.059356	53.501
0.067543	54.3455
0.079824	56.0372
0.085964	57.1663
0.100291	58.5734
0.118712	61.111
0.161694	62.216
0.202629	65.0222
0.259938	66.4012
0.30906	67.7856
0.358182	69.7365
0.405258	70.2723
0.450287	71.0928
0.513736	72.7511
0.556718	72.723
0.601747	73.8268
0.654962	75.4917
0.702038	75.1777
0.769581	77.1166
0.810516	77.0899
0.869872	79.6007
0.9149	79.5713
0.959929	79.5419
0.98449	79.8092
1.00086	80.0818
