Adsorption isotherm of Nitrogen on LTA-A35
DOI: 10.1007/s10450-021-00331-x
Article source: Figure 2
Adsorbate Nitrogen: InChIKey IJGRMHOSHXDMSA-UHFFFAOYSA-N
Kind: experiment
Temperature: 77 K
Tabular data in the source: 0
pressure (bar)	uptake (cm3(STP)/g)
0.019346	5.62138
0.021066	5.62018
0.035166	8.42728
0.047292	9.12308
0.052452	9.11949
0.062943	10.5207
0.068103	10.5171
0.107582	9.7854
0.159271	10.4537
0.214146	9.00711
0.257319	10.3856
0.305568	11.0562
0.362502	12.4251
0.405506	12.3952
0.455645	14.4731
0.522391	11.6098
0.570301	9.46381
0.606678	11.5512
0.651571	12.9284
0.703345	14.3009
0.762254	17.7811
0.816088	21.969
0.871471	24.7474
0.922203	31.7544
0.972063	45.8043
1.01126	57.0447
0.059587	11.2272
0.107582	9.7854
0.157636	11.1591
0.21268	11.1208
0.254048	11.7963
0.307373	11.7592
0.355452	11.0216
0.412471	13.0946
0.462525	14.4683
0.510689	14.4348
0.562378	15.1031
0.615872	16.4744
0.669197	16.4373
0.71426	19.2229
0.773169	22.7031
0.806021	24.0887
0.865693	33.9064
0.920629	47.2485
0.967751	52.8495
1.00627	58.4566
