Adsorption isotherm of Nitrogen on CHA-A35
DOI: 10.1007/s10450-021-00331-x
Article source: Figure 2
Adsorbate Nitrogen: InChIKey IJGRMHOSHXDMSA-UHFFFAOYSA-N
Kind: experiment
Temperature: 77 K
Tabular data in the source: 0
pressure (bar)	uptake (cm3(STP)/g)
0.009449	9.14938
0.011762	14.0774
0.014161	19.7095
0.014924	26.047
0.015348	29.5678
0.017407	32.3833
0.017747	35.2
0.01834	40.1291
0.022374	45.0559
0.022628	47.1684
0.024857	51.3922
0.026832	53.5035
0.028976	57.0231
0.031035	59.8386
0.040145	64.0576
0.049169	67.5725
0.058109	70.3832
0.074015	73.8932
0.086225	75.2932
0.100071	75.9878
0.119078	76.6788
0.132839	76.6693
0.160361	76.6501
0.179283	76.637
0.201645	76.6214
0.225811	77.3089
0.246538	77.9987
0.263824	78.6909
0.274315	80.0921
0.303557	80.0717
0.320589	78.6514
0.339426	77.9341
0.371939	76.5031
0.394301	76.4875
0.420103	76.4696
0.44771	77.1546
0.492688	79.2361
0.511779	80.6312
0.542827	81.3139
0.570434	81.9989
0.594516	81.9822
0.628919	81.9583
0.654721	81.9403
0.677083	81.9248
0.69953	82.6134
0.722061	84.0062
0.746482	86.8061
0.765404	86.793
0.786215	88.187
0.812017	88.169
0.839709	89.5583
0.860605	91.6564
0.879866	94.4599
0.900932	97.9664
0.920277	101.474
0.938072	106.391
0.959562	113.419
0.966697	115.526
0.976061	121.858
0.981561	124.671
0.987823	133.822
1.00362	150.712
1.01496	159.155
1.0177	167.604
1.01863	175.349
1.01973	184.504
1.01869	190.138
1.02203	196.474
0.016487	67.5952
0.025596	71.8142
0.069193	76.7135
0.122688	78.0848
0.212135	78.0226
0.315428	78.655
0.395234	84.2334
0.426281	84.916
0.474275	83.4742
0.533269	87.6586
0.567757	88.3388
0.611184	91.8298
0.660899	90.3868
0.733569	93.8574
0.769777	94.5364
0.821551	95.9089
0.879164	102.911
0.909169	109.228
0.932549	117.663
0.956098	127.506
0.965292	132.429
1.00865	178.173
1.01801	184.505
1.02007	187.32
1.02436	194.359
1.02865	201.399
