Adsorption isotherm of Water on CHA-A35
DOI: 10.1007/s10450-021-00331-x
Article source: Figure 8
Adsorbate Water: InChIKey XLYOFNOQVPJJNP-UHFFFAOYSA-N
Kind: experiment
Temperature: 303 K
Tabular data in the source: 0
pressure (bar)	uptake (mmol/g)
0.000555	0.421547
0.000717	3.15663
0.00116	4.99416
0.001404	5.37037
0.001957	5.74512
0.002581	5.88369
0.004909	6.10856
0.006932	6.47637
0.008482	6.5634
0.010734	6.8358
0.015689	6.95393
0.020966	7.44791
0.025608	7.47318
0.030412	7.68637
0.035993	8.0374
0.03872	8.63775
0.00056	3.1102
0.000936	5.23107
0.001336	5.65371
0.001651	5.84091
0.002277	6.0738
0.003134	6.25844
0.004919	6.4387
0.006628	6.66648
0.008178	6.75351
0.010273	6.93231
0.015393	7.37986
0.020586	7.68555
0.025776	7.89692
0.030425	8.11084
0.035316	8.6538
0.038275	9.25306
0.040455	9.71447
