Adsorption isotherm of Water on LTA-A35
DOI: 10.1007/s10450-021-00331-x
Article source: Figure 8
Adsorbate Water: InChIKey XLYOFNOQVPJJNP-UHFFFAOYSA-N
Kind: experiment
Temperature: 303 K
Tabular data in the source: 0
pressure (bar)	uptake (mmol/g)
0.000303	0.227792
0.000334	2.23689
0.000529	5.2047
0.000911	5.61523
0.00152	6.11681
0.002351	6.38984
0.004312	6.79856
0.006272	7.11596
0.008381	7.38752
0.010413	7.52219
0.015379	7.74483
0.020196	8.05896
0.025162	8.32727
0.030282	8.82371
0.03503	9.54888
0.038209	10.9608
0.000334	2.28255
0.000767	6.07201
0.001376	6.52794
0.002434	6.93769
0.004247	7.4379
0.006054	7.61849
0.008388	7.84413
0.010269	7.93331
0.015085	8.20179
0.020053	8.56141
0.025172	8.96653
0.030142	9.46314
0.035198	10.7359
0.038224	11.9653
0.040262	12.4653
