Adsorption isotherm of Carbon Dioxide on LTA-A35
DOI: 10.1007/s10450-021-00331-x
Article source: Figure 3
Adsorbate Carbon Dioxide: InChIKey CURLTUGMZLYLDI-UHFFFAOYSA-N
Kind: experiment
Temperature: 273 K
Tabular data in the source: 0
pressure (bar)	uptake (cm3(STP)/g)
0.00614	1.41109
0.010234	2.82484
0.010234	5.94099
0.012281	7.63937
0.016374	10.1863
0.018421	11.3181
0.018421	12.4512
0.022514	13.5817
0.022514	14.9981
0.024561	16.4132
0.030701	17.8256
0.055262	19.5093
0.06959	21.1997
0.083917	22.3235
0.110525	24.2891
0.128946	25.4102
0.163741	26.5207
0.219003	27.3344
0.249704	28.1643
0.29678	29.2667
0.356136	29.5112
0.407305	30.8942
0.46052	31.9926
0.497362	32.5351
0.562858	32.7757
0.609934	33.5948
0.663149	34.4099
0.710225	34.9457
0.753207	35.4843
0.812563	36.0121
0.859638	36.2646
0.912854	37.0797
0.951742	37.9042
0.970163	37.8922
0.992677	37.8775
1.00496	38.1528
