Adsorption isotherm of Water on CAU-10-H
DOI: 10.1039/C4dt02264e
Adsorbate Water: InChIKey XLYOFNOQVPJJNP-UHFFFAOYSA-N
Temperature: 313 K
Tabular data in the source: 0
pressure (bar)	uptake (g/g)
0.000508146	0.000961538
0.00178004	0.000961538
0.00406884	0.00192308
0.00762772	0.00576923
0.0101702	0.00769231
0.0129678	0.00865385
0.0143449	0.0432692
0.0170666	0.163462
0.021185	0.2875
0.0252513	0.293269
0.0291911	0.298077
0.0375789	0.308654
0.0440607	0.316346
0.0518125	0.326923
0.0582942	0.334615
0.0659183	0.346154
