Adsorption isotherm of Water on CAU-10-H
DOI: 10.1039/C4dt02264e
Adsorbate Water: InChIKey XLYOFNOQVPJJNP-UHFFFAOYSA-N
Temperature: 333 K
Tabular data in the source: 0
pressure (bar)	uptake (g/g)
0.00171614	0.00192308
0.00618669	0.00192308
0.0103117	0.00288462
0.0223428	0.00576923
0.0271524	0.00865385
0.0360918	0.00961538
0.0402168	0.0105769
0.0464034	0.0125
0.0539045	0.25
0.0610205	0.311538
0.0699516	0.317308
0.0782016	0.319231
0.101226	0.328846
0.118065	0.335577
0.137655	0.342308
0.159993	0.350962
0.178892	0.359615
