Adsorption isotherm of Water on CAU-10-H
DOI: 10.1039/C4dt02264e
Adsorbate Water: InChIKey XLYOFNOQVPJJNP-UHFFFAOYSA-N
Temperature: 298 K
Tabular data in the source: 0
pressure (bar)	uptake (g/g)
0.00163552	0.00288462
0.00327155	0.00384615
0.00436162	0.00673077
0.00543442	0.0730769
0.00615528	0.229808
0.00750364	0.285577
0.00859346	0.289423
0.01595	0.314423
0.0187296	0.322115
0.0282126	0.35
