Adsorption isotherm of Mn(II), Co(II), Water on triethyline-tetramine modified cross-linked chitosan
DOI: 10.1021/acs.iecr.6b04919
Article source: Figure 3
Adsorbate Mn(II): InChIKey WAEMQWOKJMHJLA-UHFFFAOYSA-N
Adsorbate Co(II): InChIKey XLJKHNWPARRRJB-UHFFFAOYSA-N
Adsorbate Water: InChIKey XLYOFNOQVPJJNP-UHFFFAOYSA-N
Kind: experiment
Temperature: 303 K
Tabular data in the source: 0
pressure (bar)	Mn(II) fraction	Mn(II) uptake (mg/g)	Co(II) fraction	Co(II) uptake (mg/g)	Water fraction	Water uptake (mg/g)	total uptake (mg/g)
1.01325	0.458	0.145	0.197	0.223			
1.01325	2.269	1.409	1.06	1.875			
1.01325	5.218	2.34	1.476	3.972			
1.01325	15.496	2.165	2.6	8.237			
1.01325	46.974	0.972	5.197	21.262			
1.01325	96.904	0.868	27.567	33.541			
1.01325	146.02	0.87	76.676	32.827			
1.01325	193.837	1.363	118.561	35.181			
