Adsorption isotherm of Ni(II), Mn(II), Water on triethyline-tetramine modified cross-linked chitosan
DOI: 10.1021/acs.iecr.6b04919
Article source: Figure 3
Adsorbate Ni(II): InChIKey VEQPNABPJHWNSG-UHFFFAOYSA-N
Adsorbate Mn(II): InChIKey WAEMQWOKJMHJLA-UHFFFAOYSA-N
Adsorbate Water: InChIKey XLYOFNOQVPJJNP-UHFFFAOYSA-N
Kind: experiment
Temperature: 303 K
Tabular data in the source: 0
pressure (bar)	Ni(II) fraction	Ni(II) uptake (mg/g)	Mn(II) fraction	Mn(II) uptake (mg/g)	Water fraction	Water uptake (mg/g)	total uptake (mg/g)
1.01325	0.543	0.208	0.352	0.094			
1.01325	0.712	2.43	1.033	2.449			
1.01325	0.885	4.321	5.297	2.382			
1.01325	1.095	8.878	12.077	3.931			
1.01325	2.21	22.021	43.502	2.98			
1.01325	10.781	39.663	92.871	2.819			
1.01325	40.55	47.033	143.013	2.242			
1.01325	78.596	50.628	190.962	2.952			
