Adsorption isotherm of Mn(II), Water on triethyline-tetramine modified cross-linked chitosan
DOI: 10.1021/acs.iecr.6b04919
Article source: Figure 1
Adsorbate Mn(II): InChIKey WAEMQWOKJMHJLA-UHFFFAOYSA-N
Adsorbate Water: InChIKey XLYOFNOQVPJJNP-UHFFFAOYSA-N
Kind: experiment
Temperature: 303 K
Tabular data in the source: 0
pressure (bar)	Mn(II) fraction	Mn(II) uptake (mg/g)	Water fraction	Water uptake (mg/g)	total uptake (mg/g)
1.01325	1.347	4.143			
1.01325	2.34	9.398			
1.01325	3.797	19.702			
1.01325	26.569	29.898			
1.01325	73.234	34.729			
1.01325	110.435	39.717			
1.01325	155.379	40.89			
