Adsorption isotherm of Ni(II), Mn(II), Co(II), Water on triethyline-tetramine modified cross-linked chitosan
DOI: 10.1021/acs.iecr.6b04919
Article source: Figure 4
Adsorbate Ni(II): InChIKey VEQPNABPJHWNSG-UHFFFAOYSA-N
Adsorbate Mn(II): InChIKey WAEMQWOKJMHJLA-UHFFFAOYSA-N
Adsorbate Co(II): InChIKey XLJKHNWPARRRJB-UHFFFAOYSA-N
Adsorbate Water: InChIKey XLYOFNOQVPJJNP-UHFFFAOYSA-N
Kind: experiment
Temperature: 303 K
Tabular data in the source: 0
pressure (bar)	Ni(II) fraction	Ni(II) uptake (mg/g)	Mn(II) fraction	Mn(II) uptake (mg/g)	Co(II) fraction	Co(II) uptake (mg/g)	Water fraction	Water uptake (mg/g)	total uptake (mg/g)
1.01325	0.19	0.063	0.37	0.172	0.25	0.071			
1.01325	0.418	1.537	1.24	1.1	0.619	1.431			
1.01325	1.049	2.611	4.594	1.059	0.88	2.936			
1.01325	1.737	5.545	11.302	1.038	1.298	5.753			
1.01325	2.195	14.87	30.15	1.397	2.976	14.316			
1.01325	14.908	24.103	64.766	0.625	25.697	18.537			
1.01325	37.735	28.355	97.636	0.417	57.215	18.916			
1.01325	67.82	29.15	130.975	0.27	82.229	22			
