Adsorption isotherm of Ni(II), Water on triethyline-tetramine modified cross-linked chitosan
DOI: 10.1021/acs.iecr.6b04919
Article source: Figure 1
Adsorbate Ni(II): InChIKey VEQPNABPJHWNSG-UHFFFAOYSA-N
Adsorbate Water: InChIKey XLYOFNOQVPJJNP-UHFFFAOYSA-N
Kind: experiment
Temperature: 303 K
Tabular data in the source: 0
pressure (bar)	Ni(II) fraction	Ni(II) uptake (mg/g)	Water fraction	Water uptake (mg/g)	total uptake (mg/g)
1.01325	0.172	5.674			
1.01325	0.506	11.516			
1.01325	1.341	25.083			
1.01325	6.348	55.169			
1.01325	48.215	72.685			
1.01325	95.586	83.319			
1.01325	129.279	91.23			
