Adsorption isotherm of Co(II), Water on triethyline-tetramine modified cross-linked chitosan
DOI: 10.1021/acs.iecr.6b04919
Article source: Figure 1
Adsorbate Co(II): InChIKey XLJKHNWPARRRJB-UHFFFAOYSA-N
Adsorbate Water: InChIKey XLYOFNOQVPJJNP-UHFFFAOYSA-N
Kind: experiment
Temperature: 303 K
Tabular data in the source: 0
pressure (bar)	Co(II) fraction	Co(II) uptake (mg/g)	Water fraction	Water uptake (mg/g)	total uptake (mg/g)
1.01325	0.237	5.071			
1.01325	0.763	10.325			
1.01325	1.973	23.165			
1.01325	22.043	35.837			
1.01325	52.201	53.413			
1.01325	102.741	57.408			
1.01325	138.151	62.061			
