Adsorption isotherm of Water on MIL-101
DOI: 10.1002/ejic.201001156
Adsorbate Water: InChIKey XLYOFNOQVPJJNP-UHFFFAOYSA-N
Temperature: 298 K
Tabular data in the source: 0
pressure (bar)	uptake (g/g)
0.0523498	0.0423697
0.112416	0.0538109
0.15818	0.0638219
0.202515	0.0738329
0.249709	0.0867041
0.35125	0.126748
0.384143	0.14534
0.422757	0.411347
0.467091	0.850401
0.511426	0.896165
0.560051	0.903316
0.611536	0.911897
0.697344	0.926198
0.85895	0.94479
