Adsorption isotherm of Water on MIL-101
DOI: 10.1002/ejic.201001156
Adsorbate Water: InChIKey XLYOFNOQVPJJNP-UHFFFAOYSA-N
Temperature: 298 K
Tabular data in the source: 0
pressure (bar)	uptake (g/g)
0.0466292	0.065252
0.095254	0.0824137
0.202515	0.103866
0.262581	0.115307
0.361261	0.153921
0.412746	0.191105
0.461371	0.685934
0.502845	0.923338
0.545749	0.94908
0.620117	0.969102
0.65873	0.974823
0.713076	0.981974
0.816046	0.994845
0.85466	0.999135
0.923307	1.00772
