Adsorption isotherm of Nitrogen on 20TZY-5t
DOI: 10.1016/j.apsusc.2016.04.029
Article source: Figure 2
Adsorbate Nitrogen: InChIKey IJGRMHOSHXDMSA-UHFFFAOYSA-N
Kind: experiment
Temperature: 77 K
Tabular data in the source: 0
pressure (bar)	uptake (cm3(STP)/g)
0.01041	148.825
0.020086	151.933
0.021795	152.88
0.026877	153.324
0.031325	154.705
0.040072	155.632
0.050774	156.815
0.060059	157.88
0.070957	158.6
0.082001	159.754
0.091873	160.454
0.101793	161.134
0.11362	161.735
0.122514	162.366
0.132924	162.533
0.141499	163.335
0.151507	163.679
0.165161	164.164
0.172841	164.602
0.182615	165.306
0.194174	165.493
0.203406	166.229
0.213646	166.698
0.224119	167.026
0.233273	167.558
0.238393	167.605
0.244288	167.933
0.253288	168.293
0.263683	168.778
0.270044	168.762
0.274621	169.2
0.283543	169.638
0.293706	169.966
0.298826	170.154
0.304566	170.561
0.313642	170.795
0.324503	171.17
0.329701	171.436
0.335364	171.702
0.345803	172.258
0.353622	172.514
0.360708	172.888
0.364862	172.977
0.374343	173.509
0.384264	173.834
0.391399	174.209
0.395748	174.504
0.404252	174.79
0.408357	175.322
0.415981	175.776
0.422822	176.19
0.444437	177.005
0.464918	178.053
0.479967	178.961
0.495404	179.915
0.510687	180.65
0.526435	181.667
0.54195	182.528
0.556768	183.404
0.571584	184.358
0.587954	185.062
0.601839	185.75
0.616734	186.533
0.632948	187.299
0.647688	187.705
0.662582	188.488
0.678563	188.8
0.692682	189.3
0.707732	189.706
0.723713	190.457
0.737831	190.957
0.754744	191.426
0.768552	191.989
0.784533	192.677
0.800048	193.522
0.814788	194.304
0.829217	195.118
0.844422	196.307
0.859624	197.494
0.874871	199.033
0.889337	200.808
0.903605	202.859
0.909861	203.964
0.924716	207.2
0.93703	210.396
0.950516	215.289
0.961656	219.986
0.969475	223.814
0.976445	228.911
0.982108	228.754
0.98808	232.795
0.988934	231.338
0.995992	234.157
1.00002	237.243
0.441454	178.916
0.454274	181.57
0.470762	183.988
0.482455	185.853
0.496689	186.771
0.512732	187.373
0.526623	187.867
0.541928	188.333
0.558011	188.794
0.573171	189.292
0.588201	189.666
0.603021	190.041
0.618798	190.493
0.633627	190.76
0.648534	191.105
0.664217	191.607
0.679047	191.999
0.694727	192.561
0.709791	193.055
0.724953	193.529
0.740018	193.964
0.755571	194.636
0.770488	195.317
0.785711	196.088
0.801733	196.934
0.816709	197.817
0.832363	199.086
0.847586	200.454
0.86387	202.138
0.879133	204.181
0.894937	206.727
0.910154	209.766
0.926353	214.058
0.941721	218.755
0.954397	222.731
0.961052	224.191
