Adsorption isotherm of Nitrogen on ZY-5t
DOI: 10.1016/j.apsusc.2016.04.029
Article source: Figure 2
Adsorbate Nitrogen: InChIKey IJGRMHOSHXDMSA-UHFFFAOYSA-N
Kind: experiment
Temperature: 77 K
Tabular data in the source: 0
pressure (bar)	uptake (cm3(STP)/g)
0.01048	186.46
0.017913	188.1
0.019036	190.005
0.030041	190.934
0.031703	192.366
0.040457	192.219
0.045053	194.045
0.052049	193.533
0.057623	194.965
0.062074	195.31
0.070829	194.926
0.078364	195.265
0.081135	196.434
0.090871	196.945
0.094878	196.174
0.101347	197.406
0.111392	197.668
0.113056	196.959
0.12119	198.203
0.140602	197.795
0.142018	198.802
0.162435	199.386
0.171974	198.676
0.182244	199.812
0.201613	199.458
0.202444	199.469
0.212079	200.377
0.222693	200.585
0.232526	199.816
0.233063	200.625
0.243431	200.893
0.253751	201.071
0.263046	200.549
0.273022	201.399
0.283343	201.439
0.293272	200.926
0.303494	201.697
0.313472	201.915
0.324212	201.829
0.33578	202.096
0.344166	202.222
0.354648	201.596
0.364197	202.49
0.374134	202.648
0.383953	202.192
0.394921	202.79
0.405336	202.903
0.414827	202.617
0.424995	203.091
0.445145	203.341
0.451616	203.466
0.465419	203.517
0.480948	203.804
0.496169	203.979
0.511452	204.08
0.526332	204.35
0.541592	204.5
0.556901	204.767
0.571526	204.907
0.587373	205.135
0.60271	205.298
0.618005	205.55
0.632447	205.865
0.647819	206.039
0.664125	206.526
0.67841	206.684
0.69386	207.077
0.709155	207.485
0.724762	207.894
0.73924	208.523
0.753913	209.038
0.768586	209.631
0.784726	210.304
0.79979	211.174
0.814461	212.143
0.830309	213.111
0.844687	214.633
0.860142	216.105
0.874911	218.002
0.890267	220.284
0.905498	222.812
0.911941	223.941
0.925914	226.669
0.941013	229.041
0.956171	231.057
0.963181	232.907
0.963812	231.953
0.971513	233.272
0.983231	236.383
0.991352	238.05
0.996957	240.302
1.00127	243.474
0.469011	204.884
0.481392	207.289
0.496113	207.684
0.511518	208.01
0.526777	208.178
0.54223	208.306
0.557684	208.514
0.572844	208.771
0.587564	208.929
0.602578	209.314
0.617445	209.561
0.633242	209.867
0.6485	210.173
0.664199	210.518
0.678285	210.992
0.6941	211.547
0.709782	212.08
0.724377	212.55
0.74076	213.302
0.755434	213.944
0.770807	214.789
0.785482	215.885
0.800157	217.043
0.816153	218.39
0.831683	219.767
0.846748	221.301
0.862356	222.851
0.877499	224.479
0.892874	225.887
0.904755	227.093
0.935116	229.707
