Adsorption isotherm of Nitrogen on ZY-5
DOI: 10.1016/j.apsusc.2016.04.029
Article source: Figure 2
Adsorbate Nitrogen: InChIKey IJGRMHOSHXDMSA-UHFFFAOYSA-N
Kind: experiment
Temperature: 77 K
Tabular data in the source: 0
pressure (bar)	uptake (cm3(STP)/g)
0.009896	197.883
0.020814	200.165
0.021998	202.159
0.03002	202.041
0.032864	203.839
0.034963	202.763
0.043479	203.85
0.045393	205.242
0.049699	205.618
0.052385	204.69
0.060025	206.566
0.061781	205.411
0.071084	207.486
0.078809	206.657
0.081163	208.079
0.09085	208.494
0.09564	207.517
0.101321	208.969
0.111741	209.325
0.113253	208.328
0.120939	209.751
0.131894	209.12
0.141487	210.513
0.161786	210.869
0.162328	210.969
0.181751	211.661
0.18703	210.882
0.202543	212.295
0.212571	212.454
0.217313	211.753
0.222943	212.78
0.233118	212.959
0.243099	213.256
0.248035	212.427
0.253371	213.385
0.263547	213.682
0.273527	213.91
0.278269	213.13
0.28385	214.118
0.294172	214.287
0.304542	214.525
0.308943	213.903
0.314229	214.703
0.323769	214.901
0.333797	215.129
0.339078	214.587
0.344461	215.268
0.354246	215.506
0.364765	215.852
0.370045	215.191
0.374989	216.001
0.385065	216.131
0.395045	216.22
0.400767	215.796
0.405074	216.468
0.415837	216.725
0.43423	216.964
0.454094	217.755
0.481	218.231
0.496067	218.529
0.511575	218.797
0.5263	219.114
0.541368	219.549
0.55717	219.916
0.571896	220.292
0.587648	220.708
0.602521	221.292
0.617393	221.708
0.632413	222.233
0.648118	222.856
0.663089	223.4
0.678402	224.063
0.693263	224.706
0.708874	225.444
0.724174	226.276
0.739009	227.061
0.753996	228.088
0.769311	229.076
0.784087	230.026
0.799746	231.133
0.814719	232.27
0.830524	233.229
0.845447	234.128
0.859978	234.85
0.876416	235.405
0.891387	235.978
0.902643	237.095
0.907092	236.543
0.911544	236.8
0.926222	237.502
0.93415	238.233
0.941193	238.076
0.956753	239.124
0.964485	239.993
0.972411	240.31
0.983476	242.542
0.992874	243.748
0.996697	245.447
1.00199	247.718
0.469565	219.555
0.481299	221.234
0.497299	221.873
0.512459	222.414
0.527206	222.979
0.542032	223.215
0.558332	223.67
0.57308	224.219
0.588526	224.799
0.603196	225.458
0.618874	226.117
0.63401	226.869
0.64921	227.706
0.664318	228.477
0.679084	229.386
0.694939	230.304
0.709763	231.088
0.724976	231.84
0.740209	232.529
0.755116	233.152
0.769964	233.674
0.785531	234.138
0.800592	234.514
0.815848	234.85
0.831886	235.265
0.847436	235.641
0.861909	236.056
0.871395	236.313
