Adsorption isotherm of Nitrogen on 20TZY-5
DOI: 10.1016/j.apsusc.2016.04.029
Article source: Figure 2
Adsorbate Nitrogen: InChIKey IJGRMHOSHXDMSA-UHFFFAOYSA-N
Kind: experiment
Temperature: 77 K
Tabular data in the source: 0
pressure (bar)	uptake (cm3(STP)/g)
0.009793	156.23
0.019036	160.703
0.021008	161.212
0.030002	164.181
0.031234	164.343
0.038566	166.256
0.040475	166.542
0.049732	168.42
0.051298	168.706
0.059414	170.146
0.061516	170.373
0.070856	171.783
0.080489	173.273
0.09149	174.555
0.101025	176.005
0.111048	177.257
0.121365	178.323
0.13222	179.447
0.139896	180.433
0.143172	180.759
0.152364	181.755
0.162486	182.958
0.17295	184.093
0.182436	185.109
0.183022	185.237
0.192263	186.401
0.202385	187.348
0.208154	188.117
0.213778	188.699
0.224241	189.833
0.233384	190.711
0.23935	191.402
0.243359	191.993
0.251329	192.842
0.255192	193.423
0.263357	194.252
0.269029	195.051
0.272794	195.505
0.282817	196.353
0.284724	196.856
0.293477	197.852
0.299687	198.888
0.302864	199.193
0.312742	200.209
0.315382	200.505
0.323254	201.551
0.329709	202.507
0.334109	203.02
0.342177	204.174
0.345061	204.677
0.354205	205.348
0.361002	206.512
0.363886	206.877
0.373323	207.903
0.375963	208.731
0.384178	209.283
0.39293	210.635
0.404128	211.7
0.409604	213.159
0.414298	213.1
0.425153	214.037
0.442858	216.125
0.464047	217.879
0.479284	219.443
0.495979	220.487
0.511071	222.078
0.526315	222.777
0.541326	223.932
0.556336	224.78
0.571445	225.717
0.586411	226.677
0.601257	227.386
0.617398	228.244
0.632428	229.251
0.64826	230.121
0.662388	230.996
0.677691	231.776
0.692897	232.703
0.707957	233.621
0.72331	234.489
0.738223	235.406
0.753601	236.225
0.769001	237.095
0.783786	237.977
0.799125	238.835
0.815141	239.73
0.829459	240.862
0.844957	241.938
0.859382	243.388
0.874979	245.065
0.889355	247.047
0.903925	249.375
0.910771	250.568
0.924707	253.684
0.938057	257.52
0.953558	261.81
0.963436	264.088
0.970379	265.794
0.982409	269.65
0.990135	272.342
0.996003	275.221
1.00069	278.832
0.425657	216.851
0.439594	219.547
0.451421	221.511
0.469898	224.263
0.485837	227.747
0.495958	230.037
0.512189	231.063
0.527442	231.872
0.542891	232.937
0.557852	233.746
0.573203	234.733
0.587869	235.72
0.602732	236.469
0.617888	237.338
0.633141	238.107
0.648004	238.936
0.664548	239.65
0.679455	240.259
0.694545	240.756
0.709452	241.365
0.724954	241.954
0.740647	242.625
0.756048	243.246
0.769492	243.947
0.785834	244.856
0.8012	245.78
0.816566	246.594
0.831778	248.004
0.847687	249.398
0.862458	251.048
0.876503	252.764
0.879952	253.261
0.90718	257.986
0.921594	260.572
0.936994	263.059
0.954981	265.745
0.97494	269.6
0.987507	273.454
