Adsorption isotherm of Nitrogen on TiO2
DOI: 10.1016/j.apsusc.2016.04.029
Article source: Figure 2
Adsorbate Nitrogen: InChIKey IJGRMHOSHXDMSA-UHFFFAOYSA-N
Kind: experiment
Temperature: 77 K
Tabular data in the source: 0
pressure (bar)	uptake (cm3(STP)/g)
0.01005	128.347
0.020417	129.117
0.031125	129.807
0.032983	130.26
0.039633	130.517
0.050585	130.921
0.060071	131.414
0.069808	131.863
0.080773	132.261
0.090445	132.671
0.100856	133.019
0.110219	133.503
0.120505	133.889
0.131848	134.185
0.140845	134.707
0.151406	135.023
0.16138	135.545
0.172137	135.792
0.181525	136.354
0.191842	136.65
0.200887	137.172
0.207977	137.064
0.212182	137.596
0.222449	137.764
0.232082	138.424
0.238389	138.533
0.24279	138.769
0.252666	139.016
0.262592	139.568
0.269192	139.568
0.272762	140.022
0.284057	140.239
0.292075	140.81
0.299605	140.949
0.304201	141.254
0.314078	141.619
0.322585	142.033
0.329919	142.181
0.333293	142.566
0.344294	142.812
0.35378	143.414
0.360381	143.364
0.364194	143.936
0.374169	144.153
0.383949	144.873
0.390696	144.893
0.394119	145.159
0.404924	145.76
0.408738	145.879
0.414263	146.224
0.423993	146.904
0.436707	148.038
0.443063	148.067
0.463598	149.241
0.479587	150.286
0.494892	151.311
0.509463	152.426
0.524474	153.609
0.539584	155.088
0.554644	156.586
0.569264	158.174
0.585009	159.781
0.599582	161.704
0.614984	163.518
0.629948	165.569
0.644324	167.551
0.660411	169.641
0.675276	171.682
0.690827	173.654
0.705936	175.478
0.721387	176.987
0.737719	178.416
0.752535	179.284
0.768034	179.915
0.784414	180.112
0.799668	180.3
0.815509	180.487
0.829933	180.842
0.844992	180.901
0.856922	181.424
0.860638	181.345
0.876088	181.493
0.887773	181.572
0.890218	181.552
0.905228	181.67
0.911242	181.897
0.917598	182.084
0.926057	182.006
0.941752	182.351
0.94982	182.577
0.956615	182.646
0.963999	182.982
0.971577	183.337
0.980085	183.731
0.985464	183.997
0.99226	184.332
0.997247	184.707
1.00175	185.368
0.451932	150.296
0.470096	155.363
0.485641	158.415
0.499783	161.686
0.514082	165.332
0.528692	169.639
0.546865	174.762
0.559257	176.638
0.573323	177.664
0.588339	178.295
0.603206	178.65
0.617878	179.064
0.633281	179.202
0.648245	179.262
0.663698	179.42
0.678732	179.52
0.694073	179.693
0.708737	179.867
0.724325	179.992
0.739481	180.153
0.754852	180.524
0.769717	180.504
0.784584	180.652
0.800134	180.829
0.815538	180.918
0.831186	181.085
0.845808	181.273
