Adsorption isotherm of Nitrogen on La/ZIF-8
DOI: 10.1246/cl.150217
Article source: Figure 2a
Adsorbate Nitrogen: InChIKey IJGRMHOSHXDMSA-UHFFFAOYSA-N
Kind: experiment
Temperature: 77 K
Tabular data in the source: 0
pressure (bar)	uptake (cm3(STP)/g)
0.002479	152.838
0.002698	122.271
0.002869	98.2533
0.003072	69.869
0.003431	19.6507
0.003571	0
0.005629	211.79
0.005816	185.59
0.008997	240.175
0.015999	259.825
0.030251	264.192
0.051677	264.192
0.090942	266.376
0.10878	268.559
0.144474	270.742
0.176613	270.742
0.219464	270.742
0.251602	270.742
0.280153	272.926
0.315879	270.742
0.351588	270.742
0.362286	272.926
0.394424	272.926
0.412293	270.742
0.455113	275.109
0.505091	277.293
0.558654	277.293
0.608648	277.293
0.626486	279.476
0.658626	279.476
0.669354	277.293
0.705047	279.476
0.71933	279.476
0.747898	279.476
0.765753	279.476
0.79432	279.476
0.81573	281.659
0.862152	281.659
0.876421	283.843
0.912114	286.026
0.929969	286.026
0.965678	286.026
0.997816	286.026
