Adsorption isotherm of Nitrogen on Y/ZIF-8
DOI: 10.1246/cl.150217
Article source: Figure 2a
Adsorbate Nitrogen: InChIKey IJGRMHOSHXDMSA-UHFFFAOYSA-N
Kind: experiment
Temperature: 77 K
Tabular data in the source: 0
pressure (bar)	uptake (cm3(STP)/g)
0.00184	242.358
0.002308	176.856
0.002698	122.271
0.002885	96.0699
0.003056	72.0524
0.003243	45.8515
0.003431	19.6507
0.005177	275.109
0.008623	292.576
0.011633	371.179
0.011913	331.878
0.015095	386.463
0.029347	390.83
0.054312	395.197
0.090022	395.197
0.118574	397.38
0.132873	395.197
0.172137	397.38
0.214973	399.563
0.232828	399.563
0.250682	399.563
0.268537	399.563
0.297089	401.747
0.314912	406.114
0.354192	406.114
0.368475	406.114
0.400614	406.114
0.40774	408.297
0.44345	408.297
0.461289	410.48
0.500569	410.48
0.511282	410.48
0.557688	412.664
0.593398	412.664
0.614823	412.664
0.64339	412.664
0.66123	414.847
0.671942	414.847
0.700525	412.664
0.707652	414.847
0.743345	417.031
0.7612	417.031
0.80048	417.031
0.811193	417.031
0.857599	419.214
0.900419	423.581
0.918274	423.581
0.961093	427.948
0.975362	430.131
0.989599	436.681
1.00023	447.598
