Adsorption isotherm of Nitrogen on ZIF-8
DOI: 10.1246/cl.150217
Article source: Figure 2a
Adsorbate Nitrogen: InChIKey IJGRMHOSHXDMSA-UHFFFAOYSA-N
Kind: experiment
Temperature: 77 K
Tabular data in the source: 0
pressure (bar)	uptake (cm3(STP)/g)
0.0029	93.8865
0.003259	43.6681
0.003431	19.6507
0.005037	294.76
0.005582	218.341
0.006081	148.472
0.007672	425.764
0.007797	408.297
0.008077	368.996
0.008187	353.712
0.008343	331.878
0.018244	445.415
0.025386	445.415
0.046812	445.415
0.107518	445.415
0.139656	445.415
0.182491	447.598
0.203901	449.782
0.23961	449.782
0.25745	451.965
0.275304	451.965
0.29673	451.965
0.311014	451.965
0.343152	451.965
0.364609	447.598
0.396669	458.515
0.407413	454.148
0.446677	456.332
0.450264	454.148
0.500242	456.332
0.503827	454.148
0.550219	458.515
0.560931	458.515
0.600212	458.515
0.607369	456.332
0.646602	462.882
0.660933	456.332
0.696595	462.882
0.71091	458.515
0.746589	462.882
0.760872	462.882
0.800152	462.882
0.807294	462.882
0.850114	467.249
0.860842	465.066
0.903693	465.066
0.917977	465.066
0.9501	467.249
0.964384	467.249
0.982222	469.432
0.996506	469.432
