Adsorption isotherm of Nitrogen on [Cu(L)1/3(H2O)]*8DMA
DOI: 10.1002/chem.201203093
Adsorbate Nitrogen: InChIKey IJGRMHOSHXDMSA-UHFFFAOYSA-N
Temperature: 77 K
Tabular data in the source: 0
pressure (bar)	uptake (cm3(STP)/g)
0.0454212	216.667
0.0802896	225.794
0.130298	232.143
0.232775	235.317
0.287999	238.492
0.435531	241.667
0.733612	244.841
0.986534	246.825
