Adsorption isotherm of Nitrogen on [Cu(L)1/3(H2O)]*8DMA
DOI: 10.1002/chem.201203093
Adsorbate Nitrogen: InChIKey IJGRMHOSHXDMSA-UHFFFAOYSA-N
Temperature: 77 K
Tabular data in the source: 0
pressure (bar)	uptake (cm3(STP)/g)
0.0139543	158.73
0.0177045	188.889
0.0491191	208.73
0.134781	220.635
0.187633	221.825
0.281284	224.603
0.345194	226.587
0.486098	229.365
0.737851	230.556
0.983325	235.317
