Adsorption isotherm of Nitrogen on [Cu(L)1/3(H2O)]*8DMA
DOI: 10.1002/chem.201203093
Adsorbate Nitrogen: InChIKey IJGRMHOSHXDMSA-UHFFFAOYSA-N
Temperature: 77 K
Tabular data in the source: 0
pressure (bar)	uptake (cm3(STP)/g)
-0.00143032	8.73016
0.00685505	90.4762
0.0182976	120.635
0.036787	130.952
0.117705	138.889
0.183987	142.857
0.247759	143.254
0.355625	145.238
0.453602	147.222
0.601954	147.222
0.798866	149.603
0.991418	152.381
