Adsorption isotherm of Hydrogen on [Cu(L)1/3(H2O)]*8DMA
DOI: 10.1002/chem.201203093
Adsorbate Hydrogen: InChIKey UFHFLCQGNIYNRP-UHFFFAOYSA-N
Temperature: 77 K
Tabular data in the source: 0
pressure (bar)	uptake (wt%)
0.000392582	0.042446
0.0271524	0.17572
0.11159	0.425083
0.263733	0.674838
0.370212	0.787352
0.601682	0.9739
0.776888	1.07717
0.881669	1.126
1.00208	1.18458
