Adsorption isotherm of Nitrogen on [Cu(L)1/3(H2O)]*8DMA
DOI: 10.1002/chem.201203093
Adsorbate Nitrogen: InChIKey IJGRMHOSHXDMSA-UHFFFAOYSA-N
Temperature: 77 K
Tabular data in the source: 0
pressure (bar)	uptake (cm3(STP)/g)
0.0239142	184.524
0.0370138	196.032
0.0761033	203.175
0.141462	209.127
0.241636	211.111
0.333054	213.492
0.396965	215.476
0.490406	215.873
0.742194	217.46
1.01047	219.048
