Adsorption isotherm of Nitrogen on [Cu(L)1/3(H2O)]*8DMA
DOI: 10.1002/chem.201203093
Adsorbate Nitrogen: InChIKey IJGRMHOSHXDMSA-UHFFFAOYSA-N
Temperature: 77 K
Tabular data in the source: 0
pressure (bar)	uptake (cm3(STP)/g)
0.0160126	182.143
0.0211059	215.079
0.0356183	230.159
0.0698413	244.444
0.135514	253.968
0.242561	259.127
0.391156	261.905
0.640677	262.698
1.00537	261.111
