Adsorption isotherm of Nitrogen on [Cu(L)1/3(H2O)]*8DMA
DOI: 10.1002/chem.201203093
Adsorbate Nitrogen: InChIKey IJGRMHOSHXDMSA-UHFFFAOYSA-N
Temperature: 77 K
Tabular data in the source: 0
pressure (bar)	uptake (cm3(STP)/g)
0.00411652	71.8254
0.0100297	101.587
0.0135182	141.27
0.0441305	151.984
0.0765568	158.333
0.135392	165.079
0.18158	165.476
0.283953	167.46
0.434711	169.841
0.584371	172.222
0.783412	173.81
0.982662	177.778
