Adsorption isotherm of Hydrogen on [Cu(L)1/3(H2O)]*8DMA
DOI: 10.1002/chem.201203093
Adsorbate Hydrogen: InChIKey UFHFLCQGNIYNRP-UHFFFAOYSA-N
Temperature: 77 K
Tabular data in the source: 0
pressure (bar)	uptake (wt%)
0.258469	0.705676
0.317974	0.779332
0.445809	0.920908
0.625616	1.04156
0.723879	1.1058
0.8266	1.17199
0.926958	1.22273
1.01615	1.26569
