Adsorption isotherm of Nitrogen on [Cu(L)1/3(H2O)]*8DMA
DOI: 10.1002/chem.201203093
Adsorbate Nitrogen: InChIKey IJGRMHOSHXDMSA-UHFFFAOYSA-N
Temperature: 77 K
Tabular data in the source: 0
pressure (bar)	uptake (cm3(STP)/g)
0.0703994	225.794
0.121472	231.746
0.154544	232.937
0.275911	238.492
0.318873	239.683
0.424612	242.46
0.722623	244.841
0.972214	246.429
