Adsorption isotherm of Hydrogen on [Cu(L)1/3(H2O)]*8DMA
DOI: 10.1002/chem.201203093
Adsorbate Hydrogen: InChIKey UFHFLCQGNIYNRP-UHFFFAOYSA-N
Temperature: 77 K
Tabular data in the source: 0
pressure (bar)	uptake (wt%)
0.176373	0.589445
0.253922	0.694074
0.356015	0.81235
0.466773	0.907525
0.625348	1.01262
0.721284	1.06527
0.819494	1.12371
0.919853	1.17446
1.00229	1.20773
