Adsorption isotherm of Nitrogen on [Rh2(bza)4(pyz)]n
DOI: 10.1002/asia.200600317
Adsorbate Nitrogen: InChIKey IJGRMHOSHXDMSA-UHFFFAOYSA-N
Temperature: 77 K
Tabular data in the source: 0
pressure (bar)	uptake (cm3(STP)/g)
0.00413582	42.3912
0.00516514	28.2915
0.00516514	59.4041
0.00722378	66.8618
0.00928242	73.5038
0.017517	74.7856
0.0731002	76.3004
0.186325	80.2623
0.311902	83.9912
0.414834	87.0209
0.491003	89.701
0.594965	92.9637
0.673193	94.4786
0.718483	97.3917
0.794652	99.6057
0.925376	103.102
0.970666	105.665
1.00257	109.86
