Adsorption isotherm of Oxygen on [Rh2(bza)4(pyz)]n
DOI: 10.1002/asia.200600317
Adsorbate Oxygen: InChIKey MYMOFIZGZYHOMD-UHFFFAOYSA-N
Temperature: 77 K
Tabular data in the source: 0
pressure (bar)	uptake (cm3(STP)/g)
3.94099e-06	34.8331
4.20252e-06	41.1255
7.70701e-06	56.3322
1.19176e-05	71.2768
2.11028e-05	77.307
4.77788e-05	81.2398
8.4916e-05	83.8617
0.000117869	85.697
0.000161338	85.4348
0.000796854	86.7457
0.00117084	87.5322
0.00163669	87.9272
0.00305619	87.9272
0.0115464	88.7327
0.0401945	88.8432
0.063209	89.1054
0.107669	91.2028
0.129376	92.5138
0.161338	91.9894
0.326101	94.6112
0.3601	96.7087
