Adsorption isotherm of Oxygen on [Rh2(bza)4(pyz)]n
DOI: 10.1002/asia.200600317
Adsorbate Oxygen: InChIKey MYMOFIZGZYHOMD-UHFFFAOYSA-N
Temperature: 77 K
Tabular data in the source: 0
pressure (bar)	uptake (cm3(STP)/g)
0.00310651	36.3318
0.00310651	78.864
0.00310651	86.5548
0.00413582	58.2388
0.017517	91.4489
0.0473672	92.9637
0.082364	94.0125
0.124566	95.1777
0.153387	96.576
0.187355	98.324
0.195589	99.9553
0.20897	103.684
