Adsorption isotherm of Nitric oxide on [Rh2(bza)4(pyz)]n
DOI: 10.1002/asia.200600317
Adsorbate Nitric oxide: InChIKey MWUXSHHQAYIFBG-UHFFFAOYSA-N
Temperature: 195 K
Tabular data in the source: 0
pressure (bar)	uptake (cm3(STP)/g)
0.0391326	0.907704
0.167797	2.88866
0.221322	3.70434
0.276905	4.63656
0.381896	6.38445
0.543499	9.18109
0.592906	10.2298
0.696867	12.3273
0.809063	14.3083
0.911995	16.8718
1.01904	18.7363
