Adsorption isotherm of Nitrogen on [Rh2(bza)4(pyz)]n
DOI: 10.1002/asia.200600317
Adsorbate Nitrogen: InChIKey IJGRMHOSHXDMSA-UHFFFAOYSA-N
Temperature: 77 K
Tabular data in the source: 0
pressure (bar)	uptake (cm3(STP)/g)
4.9348e-06	26.9675
5.90246e-06	31.1625
9.01466e-06	36.6684
1.2153e-05	40.8633
3.91483e-05	44.2717
8.59621e-05	56.8566
0.000119176	64.46
0.000347023	68.6549
0.000825622	70.7524
0.00122838	70.7524
0.00862708	71.28
0.0354869	72.0633
0.067132	72.8499
0.103485	73.1121
0.13173	74.9474
0.184875	75.7339
0.480403	78.618
0.694858	81.7642
0.990386	90.4163
1.1813	106.147
