Adsorption isotherm of Nitric oxide on [Rh2(bza)4(pyz)]n
DOI: 10.1002/asia.200600317
Adsorbate Nitric oxide: InChIKey MWUXSHHQAYIFBG-UHFFFAOYSA-N
Temperature: 195 K
Tabular data in the source: 0
pressure (bar)	uptake (cm3(STP)/g)
0.000726241	0.486872
0.000919773	0.486872
0.00124145	0.749056
0.0058952	0.663836
0.00873422	0.932338
0.0105287	0.663836
0.0125106	0.663836
0.0728856	1.01124
0.279026	2.58435
0.438559	3.37091
