Adsorption isotherm of Methane on NH2-MIL-53(Al)
DOI: 10.1002/ceat.201400741
Article source: Figure 3
Adsorbate Methane: InChIKey VNWKTOKETHGBQD-UHFFFAOYSA-N
Kind: experiment
Temperature: 298 K
Tabular data in the source: 0
pressure (bar)	uptake (mmol/g)
0.2568	-0.040741
0.675526	0.020605
1.16416	0.081972
1.7227	0.143359
2.21169	0.174114
2.91004	0.235542
3.53848	0.29695
5.0051	0.419827
6.33189	0.542662
7.58914	0.634866
8.98549	0.788334
10.3109	1.03362
12.1905	1.70764
13.9303	2.38161
15.9547	2.6271
17.981	2.71953
20.0075	2.78134
22.8027	2.87399
25.5979	2.96665
28.3239	2.99805
30.9797	3.06005
