Adsorption isotherm of Nitrogen on NH2-MIL-53(Al)
DOI: 10.1002/ceat.201400741
Article source: Figure 3
Adsorbate Nitrogen: InChIKey IJGRMHOSHXDMSA-UHFFFAOYSA-N
Kind: experiment
Temperature: 298 K
Tabular data in the source: 0
pressure (bar)	uptake (mmol/g)
3.67972	0.174542
4.93769	0.205521
6.47492	0.267194
7.80314	0.267581
9.27046	0.329233
10.598	0.390845
12.6249	0.422048
14.6508	0.545088
16.7473	0.606923
18.8434	0.699371
20.8696	0.791799
23.5945	0.915042
26.3195	1.03829
28.9745	1.16151
31.7686	1.346
