Adsorption isotherm of Hydrogen on NH2-MIL-53(Al)
DOI: 10.1002/ceat.201400741
Article source: Figure 3
Adsorbate Hydrogen: InChIKey UFHFLCQGNIYNRP-UHFFFAOYSA-N
Kind: experiment
Temperature: 298 K
Tabular data in the source: 0
pressure (bar)	uptake (mmol/g)
0.537139	-0.101884
0.746502	-0.071211
0.886315	-0.07117
1.09603	-0.071109
1.9342	-0.00964
2.42355	-0.009498
3.05271	-0.009314
3.75141	0.021502
5.77906	-0.008519
7.73644	-0.007949
9.76338	0.023255
11.6509	0.023805
16.0543	0.086313
20.3881	0.118189
24.5825	0.119412
28.7066	0.151226
32.7609	0.183021
