Adsorption isotherm of Carbon Dioxide on NH2-MIL-53(Al)
DOI: 10.1002/ceat.201400741
Article source: Figure 3
Adsorbate Carbon Dioxide: InChIKey CURLTUGMZLYLDI-UHFFFAOYSA-N
Kind: experiment
Temperature: 298 K
Tabular data in the source: 0
pressure (bar)	uptake (mmol/g)
0.22898	2.34701
0.231476	2.13272
0.233616	1.94905
0.24503	0.969459
0.366296	2.56133
0.380206	1.36746
0.643069	2.80631
0.656622	1.64305
1.12885	3.11257
1.14347	1.85748
1.75551	3.32704
1.77049	2.04133
2.2577	2.22515
2.45244	3.51092
2.81588	2.31715
3.07946	3.69478
3.51352	2.4398
3.77495	4.0011
4.25966	4.3992
4.6709	5.1034
4.8396	2.62386
5.08035	5.96066
5.27794	7.00154
5.76087	7.5527
6.16569	2.80792
6.31656	7.85898
7.01348	8.04286
7.49213	2.96137
7.64014	8.25733
8.26788	8.37996
8.88848	3.11484
8.96552	8.50261
9.66315	8.62527
10.1454	3.23765
11.6173	8.90135
12.1705	3.42192
13.6418	9.14683
14.1939	3.75924
15.6669	9.3311
16.0029	4.49446
17.594	5.9337
17.7627	9.45416
19.255	7.37296
20.4869	9.63863
20.9916	8.32245
23.2821	9.73128
23.571	8.93544
26.0773	9.82393
26.2228	9.33418
28.8029	9.88595
28.9459	9.61048
31.6691	9.88678
