Adsorption isotherm of Water on Activated Carbon AT467R117t45
DOI: 10.1007/s10450-013-9540-5
Adsorbate Water: InChIKey XLYOFNOQVPJJNP-UHFFFAOYSA-N
Temperature: 298 K
Tabular data in the source: 0
pressure (bar)	uptake (mmol/g)
0.00163397	0.773196
0.00375813	1.70103
0.00588229	2.16495
0.00751626	3.09278
0.00955872	4.17526
0.0116012	5.10309
0.0134802	6.80412
0.0151142	10.0515
0.0169933	13.4536
0.0187089	17.7835
0.0198527	21.1856
0.0210782	24.8969
0.0226305	27.8351
0.0243461	30.3093
0.0258984	32.1649
0.0281043	35.4124
0.0296565	37.268
0.0306369	39.2784
