Adsorption isotherm of Toluene on Activated Carbon AT467R117t45
DOI: 10.1007/s10450-013-9540-5
Adsorbate Toluene: InChIKey YXFVVABEGXRONW-UHFFFAOYSA-N
Temperature: 298 K
Tabular data in the source: 0
pressure (bar)	uptake (mmol/g)
0.000398222	3.25727
0.000576997	3.57942
0.00129939	3.90157
0.00178004	4.24161
0.00274377	4.59955
0.0040706	4.86801
0.00545823	5.08277
0.0082343	5.40492
0.0117356	5.67338
0.0136675	5.79866
0.0173504	6.01342
0.0223625	6.19239
0.0287635	6.40716
0.0350442	6.55034
