Adsorption isotherm of Toluene on Activated Carbon AT467R117t45
DOI: 10.1007/s10450-013-9540-5
Adsorbate Toluene: InChIKey YXFVVABEGXRONW-UHFFFAOYSA-N
Temperature: 298 K
Tabular data in the source: 0
pressure (bar)	uptake (mmol/g)
0.000397952	3.29306
0.000698071	3.54362
0.00111845	3.86577
0.00177991	4.25951
0.00268351	4.58166
0.004131	4.86801
0.00551863	5.08277
0.00817389	5.40492
0.0117356	5.67338
0.0136675	5.79866
0.017411	5.99553
0.0224229	6.19239
0.0288242	6.37136
0.0349234	6.55034
