Adsorption isotherm of Toluene on Activated Carbon AT533R083t60
DOI: 10.1007/s10450-013-9540-5
Adsorbate Toluene: InChIKey YXFVVABEGXRONW-UHFFFAOYSA-N
Temperature: 298 K
Tabular data in the source: 0
pressure (bar)	uptake (mmol/g)
0.000320616	2.78465
0.000641232	3.01202
0.00184354	3.39059
0.00272524	3.63931
0.00817571	4.178
0.0117826	4.36015
0.0137063	4.4024
0.0173934	4.57367
0.0224431	4.70082
0.0287753	4.82724
0.0349471	4.93208
