Adsorption isotherm of Water on Activated Carbon AT400R1t75
DOI: 10.1007/s10450-013-9540-5
Adsorbate Water: InChIKey XLYOFNOQVPJJNP-UHFFFAOYSA-N
Temperature: 298 K
Tabular data in the source: 0
pressure (bar)	uptake (mmol/g)
0.000735286	0.618557
0.00277775	1.39175
0.00457511	1.70103
0.00563719	2.16495
0.00767965	3.24742
0.00931362	4.02062
0.0110293	6.03093
0.0124182	8.04124
0.0140521	10.8247
0.0151959	13.7629
0.0165031	16.5464
0.0173201	18.5567
0.0185455	22.1134
0.019771	25.5155
0.0206697	28.299
0.0239376	30.9278
0.0267154	33.2474
0.0288396	35.567
0.0310454	38.0412
