Adsorption isotherm of Water on Activated Carbon AT600R1t30
DOI: 10.1007/s10450-013-9540-5
Adsorbate Water: InChIKey XLYOFNOQVPJJNP-UHFFFAOYSA-N
Temperature: 298 K
Tabular data in the source: 0
pressure (bar)	uptake (mmol/g)
0.000653588	0.773196
0.00130718	1.23711
0.00269605	2.01031
0.00334964	2.62887
0.00400322	2.78351
0.00465681	3.24742
0.0052287	3.71134
0.00571889	3.86598
0.00604569	4.17526
0.00661757	4.63918
0.00735286	5.41237
0.00792475	5.72165
0.00841494	6.34021
0.00890513	6.95876
0.00947702	7.42268
0.00988551	7.73196
0.0104574	8.50515
0.0109476	9.12371
0.0116829	10.0515
0.0124182	10.9794
0.0132351	11.9072
0.0142155	13.4536
0.015441	15.4639
0.0165031	17.3196
0.0187906	20.1031
0.0207514	22.1134
0.0223854	23.8144
0.0239376	25.0515
0.0255716	26.5979
0.0271239	27.8351
0.0277775	28.1443
0.0303918	29.5361
0.0305552	29.6907
