Adsorption isotherm of Toluene on Activated Carbon AT800R15t120
DOI: 10.1007/s10450-013-9540-5
Adsorbate Toluene: InChIKey YXFVVABEGXRONW-UHFFFAOYSA-N
Temperature: 298 K
Tabular data in the source: 0
pressure (bar)	uptake (mmol/g)
0.00040077	2.43785
0.000601155	2.65446
0.00108208	2.93592
0.00176339	3.30395
0.00268516	3.55265
0.00412793	3.82272
0.00553063	3.9953
0.00817571	4.27552
0.0116624	4.57694
0.0136663	4.69499
0.0173133	4.96381
0.0223229	5.3077
0.0284947	5.80263
0.0349471	6.28657
