Adsorption isotherm of Toluene on Activated Carbon AT467R117t45
DOI: 10.1007/s10450-013-9540-5
Adsorbate Toluene: InChIKey YXFVVABEGXRONW-UHFFFAOYSA-N
Temperature: 298 K
Tabular data in the source: 0
pressure (bar)	uptake (mmol/g)
0.00105765	3.91946
0.00268283	4.67114
0.00425126	4.9396
0.00533702	5.13647
0.00823389	5.45861
0.0114936	5.72707
0.0134254	5.87025
0.0174707	6.08501
0.0224823	6.31767
0.0282795	6.51454
0.0350426	6.7651
