Adsorption isotherm of Water on Activated Carbon AT800R15t120
DOI: 10.1007/s10450-013-9540-5
Adsorbate Water: InChIKey XLYOFNOQVPJJNP-UHFFFAOYSA-N
Temperature: 298 K
Tabular data in the source: 0
pressure (bar)	uptake (mmol/g)
0.000490191	1.08247
0.00155227	1.70103
0.00343134	3.09278
0.0053921	4.3299
0.00743456	6.03093
0.0101306	8.65979
0.0122548	11.4433
0.0140521	14.5361
0.0158495	16.8557
0.0182188	20.4124
0.0209148	24.1237
0.0225488	26.7526
0.0236926	28.1443
0.0258984	30.1546
0.0282677	31.701
0.0301467	32.7835
0.0310454	33.0928
