Adsorption isotherm of Toluene on Activated Carbon AT467R117t45
DOI: 10.1007/s10450-013-9540-5
Adsorbate Toluene: InChIKey YXFVVABEGXRONW-UHFFFAOYSA-N
Temperature: 298 K
Tabular data in the source: 0
pressure (bar)	uptake (mmol/g)
0.000518756	3.29306
0.000757933	3.61521
0.00105792	3.88367
0.00171923	4.2953
0.00280431	4.58166
0.00413059	4.9217
0.00545782	5.13647
0.00823403	5.44072
0.011554	5.72707
0.013667	5.87025
0.0174103	6.08501
0.0222409	6.29978
0.0285815	6.51454
0.034741	6.71141
