Adsorption isotherm of Toluene on Activated Carbon AT400R1t75
DOI: 10.1007/s10450-013-9540-5
Adsorbate Toluene: InChIKey YXFVVABEGXRONW-UHFFFAOYSA-N
Temperature: 298 K
Tabular data in the source: 0
pressure (bar)	uptake (mmol/g)
0.000440847	3.59727
0.000601155	3.84641
0.00112216	4.0845
0.00184354	4.38749
0.00272524	4.65789
0.00404778	4.89552
0.00809555	5.31582
0.0116223	5.55219
0.0136262	5.67025
0.0172331	5.86323
0.0222027	6.07712
0.0284547	6.34445
0.0349471	6.5683
