Adsorption isotherm of Toluene on Activated Carbon AT600R1t30
DOI: 10.1007/s10450-013-9540-5
Adsorbate Toluene: InChIKey YXFVVABEGXRONW-UHFFFAOYSA-N
Temperature: 298 K
Tabular data in the source: 0
pressure (bar)	uptake (mmol/g)
0.000601155	2.82783
0.00116223	3.16342
0.00176339	3.60735
0.00264508	3.9536
0.00408785	4.26702
0.00553063	4.54793
0.00821579	4.8498
0.0116624	5.20542
0.0135861	5.35603
0.0174335	5.63557
0.0226034	5.95769
0.0289356	6.27916
0.0352277	6.43811
