Adsorption isotherm of Toluene on Activated Carbon AT533R083t60(2)
DOI: 10.1007/s10450-013-9540-5
Adsorbate Toluene: InChIKey YXFVVABEGXRONW-UHFFFAOYSA-N
Temperature: 298 K
Tabular data in the source: 0
pressure (bar)	uptake (mmol/g)
0.00040077	2.66541
0.001042	3.00095
0.00172331	3.23896
0.00284547	3.52005
0.00412793	3.71436
0.00545047	3.84364
0.00821579	4.03711
0.0117826	4.18678
0.0138266	4.28313
0.0177541	4.40009
0.0227237	4.51645
0.0288955	4.64296
0.0351475	4.72608
