Adsorption isotherm of Toluene on Activated Carbon AT467R117t45
DOI: 10.1007/s10450-013-9540-5
Adsorbate Toluene: InChIKey YXFVVABEGXRONW-UHFFFAOYSA-N
Temperature: 298 K
Tabular data in the source: 0
pressure (bar)	uptake (mmol/g)
0.000360693	2.93633
0.000681309	3.28289
0.00120231	3.66185
0.00180347	4.06244
0.00276531	4.45198
0.00412793	4.79795
0.0055707	5.02469
0.00833602	5.35902
0.0117826	5.6713
0.0137865	5.81102
0.0174736	6.05814
0.0225634	6.32614
0.0286951	6.61521
0.0348269	6.90428
