Adsorption isotherm of Argon on Carbon
DOI: 10.1021/la903549f
Adsorbate Argon: InChIKey XKRFYHLGVUSROY-UHFFFAOYSA-N
Temperature: 298 K
Tabular data in the source: 0
pressure (bar)	uptake (kmol/m3)
1.07e-05	0.299582
0.000658	0.299582
0.0109485	0.649162
0.0526062	0.649162
0.14031	2.74664
0.350538	6.24244
1.06559	16.3803
2.66219	37.0055
6.22992	56.5819
8.63971	64.9718
18.9382	78.6055
38.8845	91.8895
103.712	102.377
276.616	112.864
1244.96	125.1
2100.79	131.742
3544.94	139.432
5248.42	146.774
8856.37	155.163
