Adsorption isotherm of Argon on Carbon
DOI: 10.1021/la903549f
Adsorbate Argon: InChIKey XKRFYHLGVUSROY-UHFFFAOYSA-N
Temperature: 298 K
Tabular data in the source: 0
pressure (bar)	uptake (kmol/m3)
18.2509	0.299582
83.7971	31.0626
214.89	37.0055
433.377	42.2492
739.259	45.745
1962.79	56.9315
2945.98	62.5248
5021.61	71.2643
7009.85	77.2071
9981.28	84.1987
