Adsorption isotherm of Argon on Carbon
DOI: 10.1021/la903549f
Adsorbate Argon: InChIKey XKRFYHLGVUSROY-UHFFFAOYSA-N
Temperature: 298 K
Tabular data in the source: 0
pressure (bar)	uptake (kmol/m3)
29.7483	0.346613
84.0659	29.497
138.383	31.5792
283.23	28.6642
500.5	25.7491
935.041	22.4176
2075.71	21.1683
3035.32	22.0012
5045.07	27.2066
6909.97	33.2449
9969.86	37.8257
