Adsorption isotherm of Argon on Carbon
DOI: 10.1021/la903549f
Adsorbate Argon: InChIKey XKRFYHLGVUSROY-UHFFFAOYSA-N
Temperature: 298 K
Tabular data in the source: 0
pressure (bar)	uptake (kmol/m3)
29.7483	0.346613
65.96	24.4998
156.489	29.7052
228.913	31.371
391.865	29.497
554.818	26.7902
1079.89	24.4998
2021.39	23.4587
2999.11	23.4587
5081.28	23.0423
6982.39	22.8341
9933.65	23.6669
