Adsorption isotherm of Argon on Carbon
DOI: 10.1021/la903549f
Adsorbate Argon: InChIKey XKRFYHLGVUSROY-UHFFFAOYSA-N
Temperature: 298 K
Tabular data in the source: 0
pressure (bar)	uptake (micromoles/m2)
12.0299	0.149816
25.1391	2.44393
38.2484	3.40528
64.4669	4.7599
84.1307	5.74309
110.349	6.74814
202.114	8.03721
306.988	7.70948
483.963	6.52965
687.156	5.80864
1014.89	5.24057
2024.3	4.8036
2994.38	4.7162
