Adsorption isotherm of Argon on Carbon
DOI: 10.1021/la903549f
Adsorbate Argon: InChIKey XKRFYHLGVUSROY-UHFFFAOYSA-N
Temperature: 298 K
Tabular data in the source: 0
pressure (bar)	uptake (kmol/m3)
18.2509	0.649162
61.9484	94.6861
127.495	105.523
258.587	110.767
542.621	117.409
826.654	120.555
1023.29	124.051
2159.43	132.441
3033.38	136.985
4999.76	144.326
7075.39	148.871
10003.1	155.863
