Adsorption isotherm of Argon on Carbon
DOI: 10.1021/la903549f
Adsorbate Argon: InChIKey XKRFYHLGVUSROY-UHFFFAOYSA-N
Temperature: 87 K
Tabular data in the source: 0
pressure (bar)	uptake (kmol/m3)
1.06e-09	0.998742
1.9e-09	0.998742
3.43e-09	3.4458
7.51e-09	7.99034
1.11e-08	13.5836
2.14e-08	37.355
2.97e-08	62.8744
4.11e-08	77.2071
5.01e-08	86.6458
5.71e-08	91.8895
9.63e-08	100.629
2.41e-07	110.767
1.01e-06	119.506
2.7e-06	124.051
3.75e-06	126.847
5.93e-06	126.148
5.93e-06	129.644
1.14e-05	128.945
3.7e-05	132.091
5.13e-05	136.286
6.24e-05	132.091
8.66e-05	133.49
0.000112	137.684
0.000137	134.538
0.000203	131.392
0.000416	132.79
0.000616	138.034
0.000702	132.79
0.00075	134.538
0.00118479	132.79
0.00187269	138.733
0.00316004	131.742
0.00438237	131.742
0.00438237	136.985
0.00648828	137.684
0.0102554	134.189
0.0133219	138.384
0.0197236	138.034
0.0332823	133.49
0.0461562	137.684
0.0729548	139.083
0.0831497	142.928
0.123106	138.384
0.182264	143.278
0.307559	136.985
0.455353	144.326
0.554062	139.083
0.820311	138.733
1.2145	139.782
