Adsorption isotherm of Argon on Carbon
DOI: 10.1021/la903549f
Adsorbate Argon: InChIKey XKRFYHLGVUSROY-UHFFFAOYSA-N
Temperature: 298 K
Tabular data in the source: 0
pressure (bar)	uptake (kmol/m3)
29.7483	0.346613
102.172	17.2122
120.278	19.919
210.807	21.1683
409.971	18.6697
681.559	15.9629
1061.78	14.2972
2111.92	13.0479
3071.53	14.7136
4990.75	16.5876
6982.39	18.2533
9987.97	19.919
