Adsorption isotherm of Argon on Carbon
DOI: 10.1021/la903549f
Adsorbate Argon: InChIKey XKRFYHLGVUSROY-UHFFFAOYSA-N
Temperature: 298 K
Tabular data in the source: 0
pressure (bar)	uptake (kmol/m3)
29.7483	0.346613
65.96	31.7874
120.278	37.6175
156.489	38.6586
228.913	36.9929
337.548	35.3271
482.395	33.0367
627.241	30.5381
898.829	29.2888
1061.78	28.2477
1985.18	26.3738
3017.21	25.1245
4972.65	25.5409
6728.91	26.1656
7398.83	26.582
9969.86	28.4559
