Adsorption isotherm of Argon on Carbon
DOI: 10.1021/la903549f
Adsorbate Argon: InChIKey XKRFYHLGVUSROY-UHFFFAOYSA-N
Temperature: 298 K
Tabular data in the source: 0
pressure (bar)	uptake (kmol/m3)
18.2509	0.649162
40.0996	79.3046
61.9484	93.987
127.495	102.726
193.041	109.019
345.982	113.214
586.318	117.758
1001.44	124.051
1984.64	131.392
3033.38	138.034
4977.91	144.676
7053.54	149.221
10003.1	155.863
