Adsorption isotherm of Argon on Carbon
DOI: 10.1021/la903549f
Adsorbate Argon: InChIKey XKRFYHLGVUSROY-UHFFFAOYSA-N
Temperature: 298 K
Tabular data in the source: 0
pressure (bar)	uptake (kmol/m3)
11.6425	0.55483
84.0659	43.864
120.278	46.9873
138.383	49.4859
247.019	49.2777
337.548	46.7791
482.395	43.864
790.194	41.9901
1134.21	41.1572
2039.5	39.2832
3035.32	38.4504
4954.54	37.8257
7018.61	39.2832
9915.54	36.7846
