Adsorption isotherm of Argon on Carbon
DOI: 10.1021/la903549f
Adsorbate Argon: InChIKey XKRFYHLGVUSROY-UHFFFAOYSA-N
Temperature: 298 K
Tabular data in the source: 0
pressure (bar)	uptake (kmol/m3)
29.7483	0.346613
120.278	7.21778
210.807	10.1328
464.289	10.341
735.876	7.63422
1043.68	6.59313
1985.18	6.1767
2944.79	6.59313
5026.96	6.59313
7000.5	6.80135
9879.33	6.80135
