Adsorption isotherm of Argon on Carbon
DOI: 10.1021/la903549f
Adsorbate Argon: InChIKey XKRFYHLGVUSROY-UHFFFAOYSA-N
Temperature: 600 K
Tabular data in the source: 0
pressure (bar)	uptake (micromoles/m2)
12.0299	0.149816
71.0215	0.870825
103.795	1.24225
208.669	2.07251
300.433	2.55318
510.181	3.20864
687.156	3.49267
1001.78	3.58007
2004.63	3.47082
2994.38	3.49267
