Adsorption isotherm of Argon on Carbon
DOI: 10.1021/la903549f
Adsorbate Argon: InChIKey XKRFYHLGVUSROY-UHFFFAOYSA-N
Temperature: 298 K
Tabular data in the source: 0
pressure (bar)	uptake (kmol/m3)
11.6425	0.55483
84.0659	64.0611
102.172	68.2254
156.489	69.2665
319.442	68.4337
482.395	65.1022
753.982	63.4364
1025.57	62.1871
1948.97	60.9378
2944.79	61.1461
5026.96	61.1461
6964.29	63.02
9933.65	61.7707
