Adsorption isotherm of Argon on Carbon
DOI: 10.1021/la903549f
Adsorbate Argon: InChIKey XKRFYHLGVUSROY-UHFFFAOYSA-N
Temperature: 298 K
Tabular data in the source: 0
pressure (bar)	uptake (kmol/m3)
18.2509	0.299582
236.738	9.73824
586.318	19.5265
979.595	23.7214
2028.33	30.3634
3492.2	34.5584
5174.55	38.4038
7009.85	40.5013
9915.73	43.9971
