Adsorption isotherm of Argon on Carbon
DOI: 10.1021/la903549f
Adsorbate Argon: InChIKey XKRFYHLGVUSROY-UHFFFAOYSA-N
Temperature: 298 K
Tabular data in the source: 0
pressure (bar)	uptake (kmol/m3)
18.2509	0.649162
61.9484	14.9819
193.041	23.3719
520.772	31.4122
1001.44	34.908
1919.09	39.1029
2989.68	43.2979
5043.46	49.2408
6966.15	53.7853
9981.28	58.3298
