Adsorption isotherm of Argon on Carbon
DOI: 10.1021/la903549f
Adsorbate Argon: InChIKey XKRFYHLGVUSROY-UHFFFAOYSA-N
Temperature: 298 K
Tabular data in the source: 0
pressure (bar)	uptake (kmol/m3)
18.2509	0.299582
61.9484	25.1198
149.343	36.3063
411.528	42.2492
1001.44	47.1433
1962.79	51.6878
2945.98	56.5819
5130.86	65.671
6966.15	74.4105
9915.73	82.1013
