Adsorption isotherm of Argon on Carbon
DOI: 10.1021/la903549f
Adsorbate Argon: InChIKey XKRFYHLGVUSROY-UHFFFAOYSA-N
Temperature: 298 K
Tabular data in the source: 0
pressure (bar)	uptake (kmol/m3)
18.2509	0.0499976
61.9484	12.8845
258.587	21.2744
586.318	27.9164
1023.29	31.0626
2072.03	37.355
2989.68	40.8508
4956.07	45.0458
6988	48.192
10003.1	52.0374
