Adsorption isotherm of Argon on Carbon
DOI: 10.1021/la903549f
Adsorbate Argon: InChIKey XKRFYHLGVUSROY-UHFFFAOYSA-N
Temperature: 298 K
Tabular data in the source: 0
pressure (bar)	uptake (kmol/m3)
11.6425	0.55483
102.172	85.5075
156.489	98.2087
283.23	100.916
536.712	99.8745
735.876	99.6663
1079.89	100.291
2039.5	101.332
2962.9	103.831
4936.43	106.537
7018.61	108.203
9933.65	111.535
