Adsorption isotherm of Argon on Carbon
DOI: 10.1021/la903549f
Adsorbate Argon: InChIKey XKRFYHLGVUSROY-UHFFFAOYSA-N
Temperature: 298 K
Tabular data in the source: 0
pressure (bar)	uptake (kmol/m3)
18.2509	0.299582
83.7971	31.0626
236.738	39.8021
433.377	43.9971
1066.99	49.5903
2050.18	53.7853
3033.38	57.6307
5087.16	62.1752
7053.54	64.6223
10003.1	69.1668
