Adsorption isotherm of Argon on Carbon
DOI: 10.1021/la903549f
Adsorbate Argon: InChIKey XKRFYHLGVUSROY-UHFFFAOYSA-N
Temperature: 400 K
Tabular data in the source: 0
pressure (bar)	uptake (micromoles/m2)
12.0299	0.149816
25.1391	1.2204
51.3576	2.05066
103.795	3.31788
215.223	4.7599
287.324	5.28427
523.29	5.34982
687.156	5.04393
1014.89	4.67251
2024.3	4.30108
2981.27	4.32293
