Adsorption isotherm of Argon on Carbon
DOI: 10.1021/la903549f
Adsorbate Argon: InChIKey XKRFYHLGVUSROY-UHFFFAOYSA-N
Temperature: 298 K
Tabular data in the source: 0
pressure (bar)	uptake (kmol/m3)
18.2509	0.649162
61.9484	64.6223
149.343	73.7113
367.831	80.3534
1045.14	86.6458
2006.49	91.1903
3033.38	94.6861
5043.46	99.5803
7075.39	104.474
10003.1	106.572
