Adsorption isotherm of Argon on Carbon
DOI: 10.1021/la903549f
Adsorbate Argon: InChIKey XKRFYHLGVUSROY-UHFFFAOYSA-N
Temperature: 87 K
Tabular data in the source: 0
pressure (bar)	uptake (micromoles/m2)
0.000111	0.156053
0.00024	0.538406
0.00052	1.19387
0.000883	2.06782
0.001016	3.32412
0.00166345	6.65605
0.00191508	7.69387
0.00348488	9.00479
0.00570565	9.87874
0.0107547	10.4796
0.0225307	11.0258
0.0455678	11.572
0.0889705	12.1182
0.145668	13.2653
0.222276	15.5048
0.230244	17.635
0.305169	20.9124
0.363924	23.0972
0.433992	23.8619
0.465661	24.7905
