Adsorption isotherm of Argon on Carbon
DOI: 10.1021/la903549f
Adsorbate Argon: InChIKey XKRFYHLGVUSROY-UHFFFAOYSA-N
Temperature: 298 K
Tabular data in the source: 0
pressure (bar)	uptake (kmol/m3)
18.2509	0.299582
61.9484	39.1029
149.343	44.3466
345.982	48.5416
957.747	52.387
3011.53	59.3786
5021.61	63.5735
7031.7	68.1181
10003.1	73.3618
