Adsorption isotherm of Argon on Carbon
DOI: 10.1021/la903549f
Adsorbate Argon: InChIKey XKRFYHLGVUSROY-UHFFFAOYSA-N
Temperature: 298 K
Tabular data in the source: 0
pressure (bar)	uptake (kmol/m3)
29.7483	0.346613
65.96	27.2066
174.595	29.2888
355.654	28.0395
518.606	25.5409
772.088	24.0834
1061.78	24.0834
1948.97	26.3738
3071.53	28.6642
5026.96	32.6203
7000.5	35.5353
9969.86	39.075
