Adsorption isotherm of Argon on Carbon
DOI: 10.1021/la903549f
Adsorbate Argon: InChIKey XKRFYHLGVUSROY-UHFFFAOYSA-N
Temperature: 298 K
Tabular data in the source: 0
pressure (bar)	uptake (kmol/m3)
18.2509	0.649162
61.9484	48.5416
105.646	53.7853
302.285	59.029
717.411	63.5735
1132.54	65.3214
2028.33	69.1668
2924.13	71.6139
5021.61	75.8088
7053.54	79.6542
9981.28	82.4508
