Adsorption isotherm of Argon on Carbon
DOI: 10.1021/la903549f
Adsorbate Argon: InChIKey XKRFYHLGVUSROY-UHFFFAOYSA-N
Temperature: 298 K
Tabular data in the source: 0
pressure (bar)	uptake (kmol/m3)
18.2509	0.649162
105.646	21.624
236.738	28.6155
455.226	34.2088
957.747	38.0542
2006.49	43.6475
3055.23	48.5416
4999.76	55.5332
7031.7	60.4273
9959.43	65.3214
