Adsorption isotherm of Argon on Carbon
DOI: 10.1021/la903549f
Adsorbate Argon: InChIKey XKRFYHLGVUSROY-UHFFFAOYSA-N
Temperature: 298 K
Tabular data in the source: 0
pressure (bar)	uptake (kmol/m3)
29.7483	0.346613
65.96	12.215
156.489	14.7136
283.23	16.1711
446.183	14.7136
645.347	13.0479
1134.21	10.5493
1985.18	9.71639
2999.11	9.92461
5063.17	11.1739
7000.5	12.4232
9933.65	14.089
