Adsorption isotherm of Argon on Carbon
DOI: 10.1021/la903549f
Adsorbate Argon: InChIKey XKRFYHLGVUSROY-UHFFFAOYSA-N
Temperature: 298 K
Tabular data in the source: 0
pressure (bar)	uptake (micromoles/m2)
0.000103	0.0468097
0.0921595	0.0468097
0.662233	0.156053
1.12311	0.210675
3.46605	0.64765
10.3265	1.30311
23.2122	2.45017
34.1942	3.92496
76.8629	5.83673
121.49	7.14765
178.968	8.07622
293.017	7.74849
552.316	6.49219
758.288	5.67286
1005.05	5.39975
1962.35	4.85353
