Adsorption isotherm of Argon on Carbon
DOI: 10.1021/la903549f
Adsorbate Argon: InChIKey XKRFYHLGVUSROY-UHFFFAOYSA-N
Temperature: 800 K
Tabular data in the source: 0
pressure (bar)	uptake (micromoles/m2)
12.0299	0.0405726
97.24	0.586791
215.223	1.08931
313.543	1.52629
503.627	2.00696
700.265	2.35654
1008.33	2.68427
1991.53	2.99015
2981.27	3.0994
