Adsorption isotherm of Argon on Carbon
DOI: 10.1021/la903549f
Adsorbate Argon: InChIKey XKRFYHLGVUSROY-UHFFFAOYSA-N
Temperature: 298 K
Tabular data in the source: 0
pressure (bar)	uptake (kmol/m3)
18.2509	0.0249988
236.738	7.31618
411.528	14.4826
761.108	20.775
1241.78	25.8439
2006.49	29.8641
2618.25	32.1363
3470.35	34.2338
4453.54	36.8557
5764.47	39.3027
8102.28	42.449
9915.73	44.3716
