Adsorption isotherm of Argon on Carbon
DOI: 10.1021/la903549f
Adsorbate Argon: InChIKey XKRFYHLGVUSROY-UHFFFAOYSA-N
Temperature: 298 K
Tabular data in the source: 0
pressure (bar)	uptake (kmol/m3)
40.0996	0.149791
127.495	40.3515
171.192	43.3229
236.738	46.1195
389.679	48.7414
739.259	50.8389
1001.44	52.7616
2115.73	56.6069
3011.53	59.2288
4977.91	63.7733
6988	67.6187
10003.1	72.8624
