Adsorption isotherm of Argon on Carbon
DOI: 10.1021/la903549f
Adsorbate Argon: InChIKey XKRFYHLGVUSROY-UHFFFAOYSA-N
Temperature: 298 K
Tabular data in the source: 0
pressure (bar)	uptake (kmol/m3)
18.2509	0.649162
40.0996	83.8492
83.7971	94.3366
127.495	97.4828
171.192	100.979
302.285	102.027
608.167	99.9298
1023.29	99.2307
1984.64	101.678
2967.83	103.775
5043.46	106.222
7009.85	107.271
9915.73	111.466
