Adsorption isotherm of Argon on Carbon
DOI: 10.1021/la903549f
Adsorbate Argon: InChIKey XKRFYHLGVUSROY-UHFFFAOYSA-N
Temperature: 298 K
Tabular data in the source: 0
pressure (bar)	uptake (kmol/m3)
40.0996	0.0249988
83.7971	35.1078
105.646	38.6036
214.89	37.2053
389.679	33.5347
761.108	30.3884
1066.99	28.4658
2093.88	26.3683
3055.23	26.0187
5087.16	25.4943
7053.54	26.5431
9981.28	28.6405
