Adsorption isotherm of Water on CALF-25
DOI: 10.1021/Ja306812r
Adsorbate Water: InChIKey XLYOFNOQVPJJNP-UHFFFAOYSA-N
Temperature: 303 K
Tabular data in the source: 0
pressure (bar)	uptake (mmol/g)
0.00455696	0.445411
0.00658228	0.534245
0.00877637	0.640898
0.0108017	0.747589
0.012827	0.85428
0.0148523	0.996685
0.0172152	1.13901
0.0192405	1.28142
0.0214346	1.4595
0.0234599	1.65548
0.025654	1.86927
0.0276793	2.17239
0.0295359	2.45769
0.03173	2.88577
0.0337553	3.29604
0.0357806	3.63487
0.0379747	3.92009
0.0403376	4.43742
