Adsorption isotherm of Water on CALF-25
DOI: 10.1021/Ja306812r
Adsorbate Water: InChIKey XLYOFNOQVPJJNP-UHFFFAOYSA-N
Temperature: 298 K
Tabular data in the source: 0
pressure (bar)	uptake (mmol/g)
0.00168776	0.356766
0.00320675	0.517141
0.00489451	0.588193
0.00658228	0.641388
0.00810127	0.783906
0.00962025	0.854995
0.011308	1.01533
0.0129958	1.15781
0.0145148	1.33605
0.0163713	1.46063
0.0177215	1.72819
0.0192405	1.85285
0.0209283	2.15604
0.0224473	2.51285
0.0239662	2.86965
0.0258228	3.33352
0.027173	3.69036
0.0288608	3.92213
0.030211	4.27897
