Adsorption isotherm of Water on CALF-25
DOI: 10.1021/Ja306812r
Adsorbate Water: InChIKey XLYOFNOQVPJJNP-UHFFFAOYSA-N
Temperature: 307 K
Tabular data in the source: 0
pressure (bar)	uptake (mmol/g)
0.00270042	0.320826
0.00590717	0.427253
0.00776371	0.533981
0.0111392	0.676085
0.0136709	0.746948
0.015865	0.835744
0.0183966	0.978036
0.0212658	1.12025
0.0239662	1.28036
0.0264979	1.38694
0.0293671	1.61844
0.0315612	1.79653
0.0344304	2.09946
0.0367932	2.38464
0.0394937	2.79476
0.0423629	3.18697
0.0447257	3.52573
0.0475949	3.91795
0.0502954	4.27449
