Adsorption isotherm of Carbon Dioxide on CALF-25
DOI: 10.1021/Ja306812r
Adsorbate Carbon Dioxide: InChIKey CURLTUGMZLYLDI-UHFFFAOYSA-N
Temperature: 263 K
Tabular data in the source: 0
pressure (bar)	uptake (mmol/g)
0.00775212	0.0231481
0.020691	0.0509259
0.0491743	0.101852
0.0802549	0.152778
0.106157	0.194444
0.134656	0.236111
0.142424	0.25
0.173529	0.287037
0.230544	0.361111
0.292761	0.430556
0.354994	0.490741
0.41722	0.555556
0.476864	0.611111
0.533919	0.662037
0.598773	0.708333
0.655828	0.759259
0.718094	0.800926
0.775164	0.842593
0.837422	0.888889
0.899695	0.925926
0.956782	0.958333
1.01645	1
1.08133	1.03241
1.14101	1.06944
1.20069	1.10185
