Adsorption isotherm of Water on CALF-25
DOI: 10.1021/Ja306812r
Adsorbate Water: InChIKey XLYOFNOQVPJJNP-UHFFFAOYSA-N
Temperature: 313 K
Tabular data in the source: 0
pressure (bar)	uptake (mmol/g)
0.00135021	0.142556
0.00455696	0.320411
0.00590717	0.373681
0.00759494	0.426876
0.0111392	0.533228
0.0146835	0.621722
0.0183966	0.710179
0.0221097	0.834351
0.0254852	0.958597
0.0290295	1.10066
0.0327426	1.24269
0.0364557	1.40258
0.0403376	1.56242
0.0438819	1.7402
0.0475949	2.02509
0.0509705	2.32791
0.0546835	2.70208
0.0582278	3.14772
0.0621097	3.46828
0.0654852	3.75324
0.0691983	4.2167
