Adsorption isotherm of Carbon Dioxide on CALF-25
DOI: 10.1021/Ja306812r
Adsorbate Carbon Dioxide: InChIKey CURLTUGMZLYLDI-UHFFFAOYSA-N
Temperature: 273 K
Tabular data in the source: 0
pressure (bar)	uptake (mmol/g)
0.0362995	0.037037
0.046657	0.0555556
0.0570066	0.0787037
0.0673802	0.087963
0.0803431	0.101852
0.0907087	0.115741
0.103672	0.12963
0.119216	0.152778
0.132179	0.166667
0.150329	0.185185
0.165873	0.208333
0.189226	0.222222
0.199583	0.240741
0.222944	0.25
0.241085	0.273148
0.256646	0.287037
0.292953	0.319444
0.308514	0.333333
0.324066	0.351852
0.362979	0.37963
0.401892	0.407407
0.433021	0.430556
0.471926	0.462963
0.508249	0.486111
0.541975	0.509259
0.578299	0.532407
0.650938	0.583333
0.723585	0.62963
0.793643	0.671296
0.8637	0.712963
0.902629	0.731481
0.938961	0.75
1.00643	0.787037
1.09726	0.833333
1.19847	0.884259
