Adsorption isotherm of Hydrogen on MIL-53-BNHx
DOI: 10.1039/C2dt12463g
Adsorbate Hydrogen: InChIKey UFHFLCQGNIYNRP-UHFFFAOYSA-N
Temperature: 77 K
Tabular data in the source: 0
pressure (bar)	uptake (wt%)
0.00754433	0.0689655
0.022573	0.158621
0.0525959	0.310345
0.0776037	0.427586
0.137555	0.655172
0.162529	0.744828
0.190006	0.848276
0.217457	0.931034
0.274836	1.08966
0.327209	1.22069
0.382043	1.33103
0.434373	1.42759
0.491667	1.51724
0.546466	1.6
0.71329	1.8
0.76556	1.84828
0.820317	1.89655
0.877559	1.94483
0.932307	1.98621
0.987046	2.02069
1.0418	2.06897
1.08907	2.09655
