Adsorption isotherm of Nitrogen on MIL-53-BNHx
DOI: 10.1039/C2dt12463g
Adsorbate Nitrogen: InChIKey IJGRMHOSHXDMSA-UHFFFAOYSA-N
Temperature: 77 K
Tabular data in the source: 0
pressure (bar)	uptake (mmol/g)
0.00193819	0.543388
0.00387639	1.17036
0.00581458	7.77345
0.0135674	10.9918
0.0251965	11.2849
0.0620222	11.6212
0.0852806	11.7897
0.110477	11.9582
0.158932	12.0862
0.207387	12.2141
0.255842	12.3839
0.304297	12.4701
0.350813	12.598
0.399268	12.7259
0.447723	12.8121
0.49424	12.8982
0.544633	13.0681
0.593088	13.1543
0.641542	13.324
0.689997	13.4938
0.738452	13.6636
0.784969	13.8333
0.835362	14.2539
