Adsorption isotherm of Nitrogen on MIL-53
DOI: 10.1039/C2dt12463g
Adsorbate Nitrogen: InChIKey IJGRMHOSHXDMSA-UHFFFAOYSA-N
Temperature: 77 K
Tabular data in the source: 0
pressure (bar)	uptake (mmol/g)
0.00193819	0.00193819
0.00581458	10.1137
0.0232583	11.2848
0.0562076	12.0388
0.0833424	12.3746
0.110477	12.4597
0.158932	12.7548
0.205449	12.8827
0.253903	13.0525
0.304297	13.1805
0.352751	13.3085
0.399268	13.3946
0.449661	13.5227
0.498116	13.5671
0.544633	13.695
0.595026	13.823
0.641542	13.9091
0.691935	13.9954
0.742328	14.0399
0.786907	14.1259
0.835362	14.1703
0.887693	14.3403
