Adsorption isotherm of Nitrogen on MIL-53-BNHx
DOI: 10.1039/C2dt12463g
Adsorbate Nitrogen: InChIKey IJGRMHOSHXDMSA-UHFFFAOYSA-N
Temperature: 77 K
Tabular data in the source: 0
pressure (bar)	uptake (mmol/g)
0.00193819	0.00193819
0.00581458	9.36151
0.0135674	10.3649
0.0213201	10.6161
0.060084	10.9107
0.0872188	11.0375
0.110477	11.1224
0.158932	11.2921
0.207387	11.3365
0.255842	11.4645
0.304297	11.5089
0.352751	11.6369
0.399268	11.723
0.451599	11.7258
0.496178	11.8118
0.544633	11.8979
0.598902	11.9844
0.641542	12.0703
0.691935	12.1566
0.738452	12.2845
0.786907	12.4543
0.835362	12.7494
0.881879	13.0862
