Adsorption isotherm of Carbon Dioxide on MIL-53-BNHx
DOI: 10.1039/C2dt12463g
Adsorbate Carbon Dioxide: InChIKey CURLTUGMZLYLDI-UHFFFAOYSA-N
Temperature: 273 K
Tabular data in the source: 0
pressure (bar)	uptake (mmol/g)
0.00697162	0.091954
0.0508271	0.413793
0.103838	0.735632
0.156796	1.01149
0.209754	1.28736
0.262712	1.56322
0.313381	1.83908
0.366339	2.11494
0.416955	2.34483
0.469914	2.62069
0.52053	2.85057
0.575724	3.08046
0.626341	3.31034
0.679194	3.49425
0.732099	3.72414
0.782663	3.90805
0.835516	4.09195
0.888316	4.22989
0.938827	4.36782
0.991627	4.50575
