Adsorption isotherm of Hydrogen on MIL-53-BNHx
DOI: 10.1039/C2dt12463g
Adsorbate Hydrogen: InChIKey UFHFLCQGNIYNRP-UHFFFAOYSA-N
Temperature: 77 K
Tabular data in the source: 0
pressure (bar)	uptake (wt%)
0.00752718	0.0551724
0.0525617	0.282759
0.0825589	0.413793
0.137512	0.62069
0.189928	0.786207
0.269761	1.0069
0.384409	1.23448
0.491521	1.4
0.60358	1.54483
0.655859	1.6
0.710624	1.65517
0.76538	1.70345
0.822614	1.74483
0.879857	1.7931
0.934596	1.82759
0.984354	1.85517
1.09134	1.91724
