Adsorption isotherm of Carbon Dioxide on MIL-53
DOI: 10.1039/C2dt12463g
Adsorbate Carbon Dioxide: InChIKey CURLTUGMZLYLDI-UHFFFAOYSA-N
Temperature: 273 K
Tabular data in the source: 0
pressure (bar)	uptake (mmol/g)
0.00690753	0.045977
0.0183761	0.045977
0.0482209	0.091954
0.0826794	0.183908
0.103428	0.367816
0.131111	0.643678
0.156527	0.965517
0.179596	1.1954
0.207252	1.42529
0.262539	1.83908
0.313132	2.06897
0.368287	2.25287
0.418854	2.43678
0.471689	2.57471
0.522204	2.66667
0.575038	2.8046
0.627847	2.89655
0.680655	2.98851
0.731196	3.12644
0.783978	3.17241
0.836812	3.31034
0.887327	3.4023
1.03423	3.58621
