Adsorption isotherm of Hydrogen on MIL-53
DOI: 10.1039/C2dt12463g
Adsorbate Hydrogen: InChIKey UFHFLCQGNIYNRP-UHFFFAOYSA-N
Temperature: 77 K
Tabular data in the source: 0
pressure (bar)	uptake (wt%)
0.00998766	0.0344828
0.0274939	0.117241
0.0499897	0.213793
0.079927	0.296552
0.107404	0.4
0.134838	0.468966
0.16228	0.544828
0.189697	0.6
0.219617	0.668966
0.274433	0.765517
0.331753	0.875862
0.381589	0.965517
0.436362	1.02759
0.493622	1.08966
0.545909	1.15172
0.600665	1.2
0.655422	1.24828
0.764909	1.32414
0.87936	1.3931
0.929126	1.42759
0.986335	1.44828
1.04106	1.46897
1.09329	1.48966
