Adsorption isotherm of Carbon Dioxide on MIL-53-BNHx
DOI: 10.1039/C2dt12463g
Adsorbate Carbon Dioxide: InChIKey CURLTUGMZLYLDI-UHFFFAOYSA-N
Temperature: 273 K
Tabular data in the source: 0
pressure (bar)	uptake (mmol/g)
0.0297544	0.139535
0.05722	0.27907
0.0823967	0.418605
0.105285	0.55814
0.13275	0.744186
0.157927	0.837209
0.183104	1.06977
0.210569	1.25581
0.260923	1.62791
0.313565	1.90698
0.368497	2.13953
0.41885	2.37209
0.469204	2.60465
0.521846	2.7907
0.730127	3.53488
0.883476	4.04651
0.936118	4.09302
1.03683	4.4186
