Adsorption isotherm of Hydrogen on DUT-13
DOI: 10.1039/C0cc02273j
Adsorbate Hydrogen: InChIKey UFHFLCQGNIYNRP-UHFFFAOYSA-N
Temperature: 77 K
Tabular data in the source: 0
pressure (bar)	uptake (wt%)
0.0182946	0.0101591
0.0619566	0.128469
0.10421	0.219737
0.202802	0.368469
0.314069	0.520582
0.50421	0.760582
0.695759	0.970159
0.807027	1.07157
