Adsorption isotherm of Nitrogen on DUT-13
DOI: 10.1039/C0cc02273j
Adsorbate Nitrogen: InChIKey IJGRMHOSHXDMSA-UHFFFAOYSA-N
Temperature: 77 K
Tabular data in the source: 0
pressure (bar)	uptake (cm3(STP)/g)
0.00229475	105.368
0.00372489	183.454
0.00372489	245.522
0.00658518	295.577
0.00801532	391.683
0.0108756	449.747
0.035188	499.802
0.0595005	539.846
0.116706	577.887
0.165331	605.918
0.219676	671.991
0.246849	788.118
0.266871	876.215
0.322647	1018.37
0.372702	1094.46
0.422757	1138.5
0.498554	1176.55
0.601525	1220.59
0.704495	1242.62
0.798884	1250.63
0.900425	1266.64
0.95048	1276.66
0.981943	1276.66
