Adsorption isotherm of Hydrogen on DUT-13
DOI: 10.1039/C0cc02273j
Adsorbate Hydrogen: InChIKey UFHFLCQGNIYNRP-UHFFFAOYSA-N
Temperature: 77 K
Tabular data in the source: 0
pressure (bar)	uptake (wt%)
0.505213	9.15e-05
1.18127	0.650796
1.68831	1.24234
2.53338	1.80009
3.20944	2.12122
5.91366	2.76347
10.6461	3.6846
20.7869	4.60573
27.7165	4.9015
38.3644	5.12122
49.0123	5.23953
61.5193	5.23108
73.5193	5.11277
85.6883	5.01136
92.9559	4.92685
99.8855	4.8846
104.956	4.78319
