Adsorption isotherm of Nitrogen on {[Co(dipp)(dptz)0.5]4}n
DOI: 10.1039/c4dt03379e
Article source: Figure 17
Adsorbate Nitrogen: InChIKey IJGRMHOSHXDMSA-UHFFFAOYSA-N
Kind: experiment
Temperature: 77 K
Tabular data in the source: 0
pressure (bar)	uptake (cm3(STP)/g)
0	145.785
0.001639	0.001639
0.001639	151.639
0.003279	153.396
0.004918	156.909
0.006557	161.593
0.009836	163.934
0.019672	170.96
0.029508	175.644
0.040984	179.157
0.05082	185.597
0.052459	181.499
0.062295	183.841
0.072131	185.597
0.081967	187.354
0.093443	189.696
0.098361	194.379
0.103279	190.867
0.15082	199.649
0.152459	196.136
0.201639	200.234
0.25082	204.333
0.301639	207.845
0.303279	211.358
0.352459	210.773
0.401639	217.799
0.403279	214.286
0.45082	220.726
0.454098	216.628
0.501639	219.555
0.503279	222.482
0.55082	225.41
0.552459	223.068
0.601639	227.752
0.604918	225.41
0.652459	229.508
0.654098	227.752
0.701639	231.85
0.704918	230.094
0.754098	234.192
0.755738	231.85
0.803279	235.948
0.804918	234.192
0.854098	235.363
0.903279	238.876
0.904918	238.876
0.955738	241.218
0.959016	240.632
1.00164	242.974
