Adsorption isotherm of Ethene on {[Co(dipp)(dptz)0.5]4}n
DOI: 10.1039/c4dt03379e
Article source: Figure 18
Adsorbate Ethene: InChIKey VGGSQFUCUMXWEO-UHFFFAOYSA-N
Kind: experiment
Temperature: 273 K
Tabular data in the source: 0
pressure (bar)	uptake (wt%)
0	0
0.004404	0.042705
0.011746	0.099644
0.017621	0.142349
0.020557	0.170819
0.02349	0.213523
0.027897	0.241993
0.041114	0.341637
0.051395	0.412811
0.061673	0.498221
0.071957	0.55516
0.076361	0.597865
0.080765	0.640569
0.083703	0.654804
0.092514	0.725979
0.099851	0.811388
0.124817	0.996441
0.149783	1.18149
0.174749	1.36655
0.198247	1.53737
0.224681	1.73665
0.251117	1.92171
0.274613	2.10676
0.299576	2.30605
0.324545	2.47687
0.349511	2.66192
0.374477	2.84698
0.399445	3.01779
0.425884	3.18861
0.449382	3.35943
0.475822	3.53025
0.499317	3.7153
0.524286	3.88612
0.549252	4.07117
0.57422	4.24199
0.602122	4.45552
0.62415	4.62633
0.650578	4.85409
0.677004	5.09609
0.700492	5.32384
0.725447	5.56584
0.751871	5.82206
0.775358	6.04982
0.800317	6.27758
0.822347	6.43416
0.850243	6.67616
0.873744	6.83274
0.901643	7.0605
0.926601	7.28826
0.950107	7.41637
0.973603	7.60142
0.995638	7.72954
