Adsorption isotherm of Carbon Dioxide on {[Co(dipp)(dptz)0.5]4}n
DOI: 10.1039/c4dt03379e
Article source: Figure 19
Adsorbate Carbon Dioxide: InChIKey CURLTUGMZLYLDI-UHFFFAOYSA-N
Kind: experiment
Temperature: 298 K
Tabular data in the source: 0
pressure (bar)	uptake (wt%)
0.118577	0.238411
0.355731	1.35099
0.711462	2.38411
1.06719	3.21854
2.43083	7.50993
3.79447	9.7351
5.27668	11.2848
6.99605	12.596
8.7747	13.5099
10.4941	14.1854
12.2727	14.6623
13.9921	15.298
16.8379	15.8543
19.2688	16.2914
21.9368	16.5695
24.3676	16.7285
26.4427	16.7682
29.2292	16.7682
31.2451	16.7682
33.1423	16.6887
34.6245	16.649
