Adsorption isotherm of Nitrogen on {[Co(dipp)(dptz)0.5]4}n
DOI: 10.1039/c4dt03379e
Article source: Figure 18
Adsorbate Nitrogen: InChIKey IJGRMHOSHXDMSA-UHFFFAOYSA-N
Kind: experiment
Temperature: 273 K
Tabular data in the source: 0
pressure (bar)	uptake (wt%)
0	0
0.008824	0
0.019118	0
0.038235	0
0.049997	0.014235
0.05735	0.014235
0.066174	0.014235
0.070586	0.014235
0.077939	0.014235
0.086762	0.014235
0.092644	0.014235
0.101465	0.02847
0.127939	0.014235
0.152933	0.042705
0.176463	0.042705
0.202933	0.042705
0.227933	0.042705
0.249992	0.042705
0.279401	0.056939
0.302931	0.056939
0.329401	0.056939
0.352931	0.056939
0.379399	0.071174
0.402928	0.071174
0.426458	0.071174
0.451458	0.071174
0.477928	0.071174
0.502928	0.071174
0.530867	0.085409
0.554393	0.099644
0.579393	0.099644
0.605867	0.085409
0.629393	0.099644
0.654393	0.099644
0.677923	0.099644
0.704393	0.099644
0.729393	0.099644
0.755864	0.099644
0.779393	0.099644
0.80292	0.113879
0.82792	0.113879
0.85292	0.113879
0.879393	0.099644
0.902923	0.099644
0.929393	0.099644
0.954393	0.099644
0.97792	0.113879
0.999982	0.099644
