Adsorption isotherm of Carbon Dioxide on {[Co(dipp)(dptz)0.5]4}n
DOI: 10.1039/c4dt03379e
Article source: Figure 19
Adsorbate Carbon Dioxide: InChIKey CURLTUGMZLYLDI-UHFFFAOYSA-N
Kind: experiment
Temperature: 273 K
Tabular data in the source: 0
pressure (bar)	uptake (wt%)
0	0.476821
0.355731	2.98013
0.652174	5.56291
0.948617	7.62914
2.31225	12.1192
3.67589	13.8675
5.03953	15.2583
6.75889	16.1722
8.47826	17.0066
10.9091	17.6026
13.2806	18
15.415	18.2384
17.4901	18.1987
19.2688	18.2781
21.2846	18.2781
23.2411	18.2384
25.3162	18.1192
27.0949	18.1192
28.3399	18.1192
29.8814	18.0795
31.3636	18.1192
33.083	18.1192
34.6838	18.0795
