Adsorption isotherm of Carbon Dioxide on Ni(bdc)(ted)0.5 t=100
DOI: 10.1016/j.micromeso.2015.03.008
Article source: Figure 8
Adsorbate Carbon Dioxide: InChIKey CURLTUGMZLYLDI-UHFFFAOYSA-N
Kind: experiment
Temperature: 298 K
Tabular data in the source: 0
pressure (bar)	uptake (mmol/g)
0	0
0.221155	0.339223
0.44231	0.636042
0.647667	0.975265
0.853026	1.31449
1.05838	2.79859
1.07418	1.78092
1.27954	3.26502
1.29534	2.16254
1.4849	3.68905
1.50069	2.54417
1.69025	4.19788
1.70605	3.0106
1.9114	3.43463
2.11677	5.04594
2.33792	5.51237
2.54328	5.89399
2.76444	5.08834
2.96979	5.42756
3.17515	5.85159
3.3963	6.14841
3.60167	6.48763
3.82282	7.84452
3.83862	6.82686
4.02817	7.08127
4.04397	8.05654
4.24933	8.26855
4.45469	8.52297
4.66005	7.84452
4.67585	8.69258
4.8812	8.86219
4.897	8.05654
5.08656	9.0742
5.10235	8.31095
5.30772	8.52297
5.51307	8.73498
5.52887	9.32862
5.71843	9.45583
5.73422	8.90459
5.93959	9.11661
6.12915	9.66784
6.16074	9.28622
6.3503	9.71025
6.3661	9.45583
6.57145	9.79505
6.79261	9.83746
