Adsorption isotherm of Carbon Dioxide on (LiCl)[Zn(bdc)(ted)0.5] t=15 sec
DOI: 10.1016/j.micromeso.2015.03.008
Article source: Figure 8
Adsorbate Carbon Dioxide: InChIKey CURLTUGMZLYLDI-UHFFFAOYSA-N
Kind: experiment
Temperature: 298 K
Tabular data in the source: 0
pressure (bar)	uptake (mmol/g)
0	0
0.062907	0.472991
0.314534	0.099723
0.361714	1.04586
0.566162	0.142225
0.629069	1.28905
0.86497	0.227642
0.91215	1.3745
1.14805	0.270081
1.1795	1.44564
1.43114	0.312519
1.46259	1.53109
1.71422	0.383632
1.76139	1.5735
1.9973	0.42607
2.04448	1.64461
2.28037	0.497183
2.34328	1.67268
2.56345	0.568295
2.59491	1.72952
2.84653	0.653744
2.87799	1.77196
3.12962	0.71052
3.16107	1.80006
3.4127	0.795969
3.42842	1.87121
3.69578	0.881418
3.7115	1.89931
3.97886	0.966868
4.01031	1.94171
4.26194	1.06665
4.29339	1.96982
4.54502	1.1521
4.56075	2.02662
4.82811	1.25189
4.84383	2.05473
5.09545	2.08289
5.11119	1.35168
5.39427	1.4658
5.41	2.11093
5.66161	2.09608
5.67734	1.57992
5.9447	2.10985
5.96042	1.69405
6.21205	2.09497
6.24351	1.80817
6.51086	2.08003
6.52659	1.92229
6.80967	2.05075
