Adsorption isotherm of Carbon Dioxide on (LiCl)[Ni(bdc)(ted)0.5] t=100
DOI: 10.1016/j.micromeso.2015.03.008
Article source: Figure 8
Adsorbate Carbon Dioxide: InChIKey CURLTUGMZLYLDI-UHFFFAOYSA-N
Kind: experiment
Temperature: 298 K
Tabular data in the source: 0
pressure (bar)	uptake (mmol/g)
0	0
0.206276	0.385714
0.222144	0.225
0.428421	0.514286
0.634698	0.771429
0.856843	1.63929
1.04726	2.025
1.06312	1.31786
1.2694	2.34643
1.47568	1.92857
1.49154	2.7
1.71369	2.98929
1.91996	3.31071
2.11037	3.56786
2.33251	3.92143
2.55466	4.17857
2.76093	3.85714
2.98308	4.14643
3.17349	4.98214
3.18936	4.43571
3.39563	5.23929
3.61778	4.95
3.82406	5.68929
4.03033	5.85
4.0462	5.43214
4.23661	5.625
4.25248	6.075
4.44289	5.85
4.45876	6.23571
4.66503	6.39643
4.88718	6.26786
5.09346	6.46071
5.10932	6.75
5.3156	6.91071
5.52187	6.81429
5.72815	7.2
5.74401	7.00714
5.91855	7.13571
5.95029	7.32857
6.15657	7.425
6.36284	7.45714
6.55326	7.65
6.56912	7.61786
6.80714	7.77857
