Adsorption isotherm of Carbon Dioxide on (LiCl)[Zn(bdc)(ted)0.5] t=100 sec
DOI: 10.1016/j.micromeso.2015.03.008
Article source: Figure 8
Adsorbate Carbon Dioxide: InChIKey CURLTUGMZLYLDI-UHFFFAOYSA-N
Kind: experiment
Temperature: 298 K
Tabular data in the source: 0
pressure (bar)	uptake (mmol/g)
0	0
0.220174	0.357978
0.235901	0.114219
0.424622	0.615629
0.440348	0.228501
0.644796	0.328446
0.849242	1.14524
0.86497	0.47137
1.06941	1.35985
1.27387	1.57449
1.28959	0.728576
1.47831	0.84289
1.49404	1.76042
1.71422	1.91768
1.90293	2.06067
1.91866	1.12874
2.1231	1.25736
2.13883	2.20356
2.32756	1.38598
2.34328	2.33218
2.56345	1.51453
2.7679	1.64315
2.97235	2.68933
2.98807	1.7574
3.19253	1.87168
3.39697	2.87485
3.42842	1.9859
3.63288	2.10018
3.83732	3.03167
4.02604	2.30011
4.05749	3.10291
4.24622	2.38568
4.26194	3.15984
4.46639	3.20244
4.48211	2.4999
4.67084	3.27371
4.68656	2.58551
4.89101	3.30194
5.09545	2.75673
5.31563	3.37277
5.33136	2.84227
5.52007	2.92791
5.5358	3.401
5.72453	3.01352
5.74025	3.42926
5.96042	3.42881
6.11769	3.44283
6.16488	3.19901
6.36932	3.27028
6.57376	3.45625
6.5895	3.35586
6.79394	3.4558
