Adsorption isotherm of Carbon Dioxide on Ni(bdc)(ted)0.5 t=15
DOI: 10.1016/j.micromeso.2015.03.008
Article source: Figure 8
Adsorbate Carbon Dioxide: InChIKey CURLTUGMZLYLDI-UHFFFAOYSA-N
Kind: experiment
Temperature: 298 K
Tabular data in the source: 0
pressure (bar)	uptake (mmol/g)
0	0
0.221155	0.424028
0.426512	1.65371
0.44231	0.805654
0.631871	2.07774
0.647667	1.27208
0.853026	2.54417
1.07418	3.0106
1.26375	3.43463
1.27954	2.54417
1.4849	3.85866
1.50069	3.0106
1.70605	4.32509
1.9114	4.70671
2.11677	5.13074
2.13257	4.32509
2.33792	5.55477
2.54328	5.9364
2.55907	5.17314
2.74863	6.27562
2.76444	5.55477
2.96979	5.89399
3.17515	6.99647
3.19095	6.23322
3.3963	6.57244
3.61747	6.86926
3.82282	7.84452
3.83862	7.12367
4.02817	8.05654
4.23353	7.63251
4.24933	8.26855
4.4389	8.52297
4.45469	7.88693
4.66005	8.69258
4.67585	8.09894
4.8812	8.31095
4.897	8.86219
5.08656	9.0318
5.10235	8.52297
5.32351	8.77739
5.51307	8.947
5.71843	9.15901
5.92379	9.62544
5.93959	9.32862
6.14495	9.75265
6.17654	9.54064
6.3503	9.87986
6.39769	9.75265
6.55566	9.96466
6.57145	9.87986
6.80841	10.0495
