Adsorption isotherm of Carbon Dioxide on (LiCl)[Ni(bdc)(ted)0.5] t=15
DOI: 10.1016/j.micromeso.2015.03.008
Article source: Figure 8
Adsorbate Carbon Dioxide: InChIKey CURLTUGMZLYLDI-UHFFFAOYSA-N
Kind: experiment
Temperature: 298 K
Tabular data in the source: 0
pressure (bar)	uptake (mmol/g)
0	0
0.015867	0.289286
0.222144	0.192857
0.428421	0.385714
0.634698	0.610714
0.856843	1.70357
1.06312	1.92857
1.2694	2.21786
1.28527	1.38214
1.49154	1.63929
1.69782	2.73214
1.91996	3.02143
2.12623	3.24643
2.33251	3.50357
2.55466	3.72857
2.7768	3.11786
2.98308	3.27857
3.17349	3.50357
3.18936	4.24286
3.39563	4.43571
3.4115	3.69643
3.60191	3.825
3.61778	4.56429
3.82406	4.725
4.0462	4.17857
4.23661	4.95
4.45876	4.40357
4.66503	5.14286
4.6809	4.56429
4.88718	5.23929
5.10932	4.82143
5.29973	4.95
5.3156	5.4
5.52187	5.46429
5.72815	5.14286
5.95029	5.23929
6.1407	5.59286
6.36284	5.625
6.37871	5.43214
6.58499	5.65714
6.60086	5.52857
6.79127	5.65714
6.80714	5.625
