Adsorption isotherm of Carbon Dioxide on Zn(bdc)(ted)0.5 t=100 sec
DOI: 10.1016/j.micromeso.2015.03.008
Article source: Figure 8
Adsorbate Carbon Dioxide: InChIKey CURLTUGMZLYLDI-UHFFFAOYSA-N
Kind: experiment
Temperature: 298 K
Tabular data in the source: 0
pressure (bar)	uptake (mmol/g)
0.015797	0
0.205358	0.645161
0.236952	0.344086
0.426512	1.46237
0.44231	0.860215
0.647667	1.24731
0.853026	2.58065
1.07418	3.05376
1.27954	2.75269
1.29534	3.56989
1.50069	3.26882
1.69025	4.55914
1.70605	3.82796
1.9114	5.03226
1.9272	4.30108
2.11677	5.50538
2.13257	4.86022
2.33792	5.93548
2.54328	6.4086
2.55907	5.80645
2.74863	6.23656
2.76444	6.7957
2.96979	6.66667
2.98559	7.13978
3.19095	7.05376
3.3963	7.31183
3.4121	7.78495
3.61747	7.65591
3.80702	7.95699
3.82282	8.43011
4.02817	8.21505
4.04397	8.64516
4.24933	8.43011
4.45469	9.07527
4.66005	8.86022
4.67585	9.24731
4.8812	9.37634
5.08656	9.24731
5.10235	9.5914
5.29192	9.46237
5.30772	9.72043
5.51307	9.89247
5.73422	9.76344
5.93959	9.93548
6.14495	10.2366
6.3503	10.3226
6.57145	10.4086
6.58725	10.3226
6.77682	10.4516
