Adsorption isotherm of Carbon Dioxide on Zn(bdc)(ted)0.5 t=15 sec
DOI: 10.1016/j.micromeso.2015.03.008
Article source: Figure 8
Adsorbate Carbon Dioxide: InChIKey CURLTUGMZLYLDI-UHFFFAOYSA-N
Kind: experiment
Temperature: 298 K
Tabular data in the source: 0
pressure (bar)	uptake (mmol/g)
0.015797	0.01559
0.221155	0.774194
0.410716	0.688172
0.426512	1.16129
0.631871	1.5914
0.853026	1.93548
1.05838	2.19355
1.26375	2.62366
1.27954	2.15054
1.4849	2.49462
1.70605	2.88172
1.9114	3.82796
2.11677	4.17204
2.32213	4
2.35372	4.60215
2.54328	4.3871
2.55907	4.90323
2.74863	4.73118
2.76444	5.2043
2.96979	5.03226
3.17515	5.29032
3.19095	5.76344
3.3963	5.50538
3.60167	5.76344
3.61747	6.23656
3.80702	6.02151
3.82282	6.45161
4.02817	6.62366
4.23353	6.7957
4.4389	6.58065
4.45469	6.96774
4.66005	6.75269
4.8654	6.88172
4.8812	7.22581
5.08656	7.31183
5.29192	7.1828
5.49728	7.31183
5.71843	7.48387
5.92379	7.74194
6.12915	7.69892
6.33451	7.91398
6.3503	7.82796
6.57145	7.91398
6.77682	8
