Adsorption isotherm of Helium on IRMOF-1
DOI: 10.1016/j.seppur.2013.04.033
Adsorbate Helium: InChIKey SWQJXJOGLNCZEY-UHFFFAOYSA-N
Temperature: 373 K
Tabular data in the source: 0
pressure (bar)	uptake (mol/m2)
0.00521158	20.7907
0.00908686	30.27
0.0134967	41.0123
0.0151002	44.841
0.0654788	166.98
