Adsorption isotherm of Helium on IRMOF-1
DOI: 10.1016/j.seppur.2013.04.033
Adsorbate Helium: InChIKey SWQJXJOGLNCZEY-UHFFFAOYSA-N
Temperature: 373 K
Tabular data in the source: 0
pressure (bar)	uptake (mol/m2)
0.00761693	27.1193
0.0105568	34.2941
0.0140312	42.6922
0.0312695	84.3818
0.0595991	152.869
