Adsorption isotherm of N-Butane on CuBTC
DOI: 10.1016/j.ces.2009.04.010
Adsorbate N-Butane: InChIKey IJDNQMDRQITEOD-UHFFFAOYSA-N
Temperature: 348 K
Tabular data in the source: 0
pressure (bar)	uptake (mmol/g)
0.0193424	1.42752
0.0212766	1.62857
0.0232108	1.82961
0.0270793	2.0307
0.0290135	2.23174
0.032882	2.43282
0.0348162	2.61377
0.0386847	2.81485
0.040619	3.01589
0.0502901	3.4985
0.0560928	3.69962
0.0599613	3.8806
0.0676983	4.08176
0.0812379	4.34334
0.0889749	4.5244
0.098646	4.7055
0.110251	4.86654
0.121857	5.00747
0.131528	5.10817
0.148936	5.14872
0.166344	5.22947
0.185687	5.29016
0.216634	5.39129
0.234043	5.41174
0.253385	5.43223
0.272727	5.47282
0.299807	5.49346
0.317215	5.53401
0.336557	5.5746
0.353965	5.61516
0.373308	5.61554
0.411992	5.65652
0.431335	5.67701
0.448743	5.67736
0.464217	5.67767
0.483559	5.67806
0.502901	5.69855
0.522244	5.69894
0.54352	5.69937
0.562863	5.69976
0.582205	5.70014
0.601547	5.70053
0.62089	5.70092
0.640232	5.70131
0.659574	5.7017
0.686654	5.70224
0.705996	5.70263
0.725338	5.70302
0.744681	5.70341
0.764023	5.7038
0.783366	5.70419
0.802708	5.70458
0.83559	5.70524
0.854932	5.70563
0.874275	5.70602
0.893617	5.7265
0.912959	5.72689
0.932302	5.74738
0.951644	5.74777
0.970986	5.74816
