Adsorption isotherm of Propene on CuBTC
DOI: 10.1016/j.ces.2009.04.010
Adsorbate Propene: InChIKey QQONPFPTGQHPMA-UHFFFAOYSA-N
Temperature: 373 K
Tabular data in the source: 0
pressure (bar)	uptake (mmol/g)
0.0078125	0.330749
0.03125	0.950904
0.0683594	1.83979
0.126953	2.85271
0.193359	3.67959
0.279297	4.36176
0.353516	4.77519
0.414062	5.0646
0.476562	5.33333
0.539062	5.51938
0.599609	5.7261
0.699219	5.93282
0.798828	6.13953
0.904297	6.28424
0.992188	6.3876
