Adsorption isotherm of Propene on CuBTC
DOI: 10.1016/j.ces.2009.04.010
Adsorbate Propene: InChIKey QQONPFPTGQHPMA-UHFFFAOYSA-N
Temperature: 348 K
Tabular data in the source: 0
pressure (bar)	uptake (mmol/g)
0.0078125	0.537468
0.0117188	0.806202
0.015625	1.21964
0.0214844	1.65375
0.0273438	1.92248
0.03125	2.1292
0.0351562	2.33592
0.0410156	2.52196
0.0449219	2.72868
0.0507812	2.91473
0.0566406	3.12145
0.0625	3.30749
0.0703125	3.51421
0.078125	3.70026
0.0859375	3.8863
0.09375	4.07235
0.103516	4.2584
0.113281	4.44444
0.125	4.60982
0.136719	4.77519
0.148438	4.94057
0.160156	5.08527
0.179688	5.29199
0.193359	5.41602
0.208984	5.54005
0.224609	5.66408
0.244141	5.78811
0.261719	5.89147
0.279297	5.97416
0.296875	6.05685
0.314453	6.13953
0.363281	6.36693
0.412109	6.51163
0.429688	6.57364
0.449219	6.63566
0.466797	6.677
0.486328	6.71835
0.519531	6.80103
0.539062	6.84238
0.556641	6.86305
0.576172	6.92506
0.611328	6.96641
0.630859	7.00775
0.650391	7.02842
0.667969	7.0491
0.6875	7.09044
0.714844	7.13178
0.734375	7.15245
0.753906	7.17313
0.771484	7.1938
0.791016	7.21447
0.8125	7.23514
0.830078	7.25581
0.849609	7.27649
0.867188	7.29716
0.886719	7.31783
0.912109	7.3385
0.931641	7.37984
0.949219	7.40052
0.96875	7.40052
