Adsorption isotherm of Propene on CuBTC
DOI: 10.1016/j.ces.2009.04.010
Adsorbate Propene: InChIKey QQONPFPTGQHPMA-UHFFFAOYSA-N
Temperature: 323 K
Tabular data in the source: 0
pressure (bar)	uptake (mmol/g)
0.00585938	0.00585938
0.00976562	1.81912
0.0136719	2.60465
0.0175781	2.95607
0.0195312	3.28682
0.0273438	3.80362
0.03125	4.07235
0.0371094	4.48579
0.0449219	4.81654
0.0644531	5.47804
0.0722656	5.66408
0.0820312	5.85013
0.105469	6.20155
0.117188	6.36693
0.150391	6.71835
0.167969	6.82171
0.199219	7.00775
0.216797	7.09044
0.234375	7.17313
0.277344	7.35917
0.414062	7.66925
0.433594	7.64858
0.451172	7.68992
0.470703	7.71059
0.490234	7.73127
0.509766	7.75194
0.53125	7.75194
0.550781	7.79328
0.568359	7.79328
0.587891	7.81395
0.607422	7.83463
0.625	7.8553
0.652344	7.81395
0.666016	7.89664
0.685547	7.91731
0.705078	7.91731
0.722656	7.93798
0.742188	7.93798
0.771484	7.8553
0.783203	7.95866
0.802734	7.97933
0.822266	7.97933
0.841797	7.97933
0.861328	7.97933
0.890625	7.89664
0.902344	8
0.921875	8
0.941406	8.02067
0.958984	8.02067
0.978516	8.04134
