Adsorption isotherm of N-propane on CuBTC
DOI: 10.1016/j.ces.2009.04.010
Adsorbate N-propane: InChIKey ATUOYWHBWRKTHZ-UHFFFAOYSA-N
Temperature: 348 K
Tabular data in the source: 0
pressure (bar)	uptake (mmol/g)
0.00298507	0.307794
0.0179104	0.650185
0.038806	0.99278
0.0537313	1.26679
0.0835821	1.71226
0.107463	2.02077
0.134328	2.39775
0.152239	2.67187
0.173134	2.94609
0.19403	3.2545
0.214925	3.49453
0.232836	3.76864
0.253731	4.00867
0.274627	4.28289
0.292537	4.52282
0.313433	4.76285
0.337313	4.9688
0.361194	5.17474
0.385075	5.38069
0.408955	5.58663
0.435821	5.75849
0.462687	5.89616
0.489552	6.03383
0.516418	6.1715
0.546269	6.2409
0.573134	6.34438
0.602985	6.41378
0.629851	6.48307
0.659701	6.55247
0.686567	6.65595
0.716418	6.72535
0.743284	6.82883
0.773134	6.89823
0.8	6.96752
0.829851	7.00273
0.859701	7.07213
0.886567	7.14142
0.916418	7.17663
0.946269	7.21184
0.973134	7.24694
