Adsorption isotherm of Propene on Zeolite 4A
DOI: 10.1016/j.ces.2009.04.010
Adsorbate Propene: InChIKey QQONPFPTGQHPMA-UHFFFAOYSA-N
Temperature: 373 K
Tabular data in the source: 0
pressure (bar)	uptake (mmol/g)
0.0121905	0.349371
0.0286505	0.466035
0.0533749	0.582835
0.0884397	0.683181
0.1524	0.833888
0.280449	0.919152
0.381629	1.0206
0.753438	1.17642
0.993095	1.19703
