Adsorption isotherm of Propene on CuBTC
DOI: 10.1016/j.ces.2009.04.010
Adsorbate Propene: InChIKey QQONPFPTGQHPMA-UHFFFAOYSA-N
Temperature: 423 K
Tabular data in the source: 0
pressure (bar)	uptake (mmol/g)
0.0214844	0.124031
0.0566406	0.392765
0.0976562	0.640827
0.146484	0.909561
0.199219	1.15762
0.269531	1.50904
0.351562	1.90181
0.402344	2.08786
0.501953	2.45995
0.599609	2.7907
0.708984	3.16279
0.804688	3.34884
0.925781	3.5969
0.992188	3.72093
