Adsorption isotherm of N-Butane on CuBTC
DOI: 10.1016/j.ces.2009.04.010
Adsorbate N-Butane: InChIKey IJDNQMDRQITEOD-UHFFFAOYSA-N
Temperature: 373 K
Tabular data in the source: 0
pressure (bar)	uptake (mmol/g)
0.0270793	0.663861
0.0309478	0.784542
0.0367505	0.965563
0.0425532	1.30739
0.0502901	1.52865
0.0618956	1.99119
0.0676983	2.19232
0.0851064	2.87608
0.0909091	3.0772
0.0947776	3.25819
0.10058	3.45931
0.106383	3.64033
0.125725	4.16333
0.135397	4.32433
0.166344	4.62646
0.183752	4.70721
0.201161	4.78796
0.220503	4.86875
0.239845	4.98975
0.255319	4.99006
0.274662	5.03065
0.29207	5.0712
0.311412	5.11179
0.336557	5.2128
0.353965	5.19304
0.371373	5.21349
0.388781	5.25405
0.413926	5.25455
0.431335	5.275
0.450677	5.27539
0.470019	5.29588
0.489362	5.29627
0.508704	5.29666
0.531915	5.37753
0.547389	5.31754
0.564797	5.33799
0.584139	5.35848
0.603482	5.35886
0.622824	5.35925
0.65764	5.35995
0.676983	5.36034
0.696325	5.38083
0.715667	5.40132
0.73501	5.40171
0.754352	5.4021
0.773694	5.40249
0.793037	5.40288
0.810445	5.42333
0.83559	5.46403
0.854932	5.44432
0.874275	5.44471
0.893617	5.4451
0.912959	5.44549
0.932302	5.44588
0.951644	5.44626
0.970986	5.44665
