Adsorption isotherm of N-Butane on CuBTC
DOI: 10.1016/j.ces.2009.04.010
Adsorbate N-Butane: InChIKey IJDNQMDRQITEOD-UHFFFAOYSA-N
Temperature: 323 K
Tabular data in the source: 0
pressure (bar)	uptake (mmol/g)
0.00597015	1.09901
0.00895522	2.43564
0.0149254	3.05941
0.0179104	4.0099
0.0208955	4.45545
0.0298507	4.90099
0.0358209	5.19802
0.0507463	5.46535
0.0686567	5.61386
0.0895522	5.85149
0.113433	5.9703
0.143284	6
0.173134	6.0297
0.202985	6.05941
0.229851	6.08911
0.259701	6.11881
0.289552	6.14851
0.316418	6.14851
0.346269	6.20792
0.376119	6.20792
0.402985	6.23762
0.432836	6.26733
0.462687	6.29703
0.492537	6.29703
0.522388	6.32673
0.552239	6.35644
0.579104	6.38614
0.608955	6.41584
0.638806	6.41584
0.665672	6.44554
0.695522	6.44554
0.725373	6.47525
0.755224	6.47525
0.785075	6.50495
0.814925	6.50495
0.841791	6.53465
0.871642	6.53465
0.901493	6.56436
0.931343	6.56436
0.961194	6.56436
0.98806	6.59406
