Adsorption isotherm of N-Butane on CuBTC
DOI: 10.1016/j.ces.2009.04.010
Adsorbate N-Butane: InChIKey IJDNQMDRQITEOD-UHFFFAOYSA-N
Temperature: 323 K
Tabular data in the source: 0
pressure (bar)	uptake (mmol/g)
0.00773694	0.00773694
0.00967118	2.39215
0.0135397	2.55304
0.0154739	3.21639
0.0174081	3.41744
0.0193424	4.10089
0.0232108	4.62358
0.0367505	4.96556
0.040619	5.16665
0.0483559	5.34771
0.0522244	5.52869
0.073501	5.60952
0.0889749	5.71033
0.106383	5.77098
0.131528	5.79159
0.15087	5.81208
0.170213	5.83257
0.187621	5.85302
0.206963	5.87351
0.234043	5.89415
0.253385	5.91464
0.272727	5.91503
0.29207	5.91542
0.311412	5.93591
0.330754	5.9363
0.353965	5.99706
0.371373	5.95721
0.390716	5.9576
0.410058	5.97809
0.4294	5.97848
0.448743	5.97887
0.485493	5.97961
0.504836	5.98
0.524178	6.00049
0.54352	6.00087
0.562863	6.00126
0.582205	6.02175
0.603482	6.02218
0.622824	6.00247
0.642166	6.00286
0.661509	6.00325
0.680851	6.00364
0.700193	6.00402
0.73501	6.02482
0.754352	6.00511
0.773694	6.0055
0.793037	6.00589
0.833656	6.00671
0.852998	6.0071
0.87234	6.00748
0.891683	6.00787
0.911025	6.04846
0.930368	6.04885
0.94971	6.04924
0.969052	6.04963
