Adsorption isotherm of N-propane on CuBTC
DOI: 10.1016/j.ces.2009.04.010
Adsorbate N-propane: InChIKey ATUOYWHBWRKTHZ-UHFFFAOYSA-N
Temperature: 423 K
Tabular data in the source: 0
pressure (bar)	uptake (mmol/g)
0.0216311	0.0816575
0.0373532	0.102281
0.0629086	0.163714
0.0766661	0.184298
0.102226	0.266035
0.121883	0.307043
0.139575	0.348012
0.159231	0.38902
0.176923	0.429988
0.212306	0.511925
0.229998	0.552893
0.249655	0.593902
0.269311	0.63491
0.298796	0.696422
0.318452	0.737431
0.347942	0.819248
0.367593	0.839951
0.385285	0.880919
0.410835	0.922047
0.428532	0.98332
0.448184	1.00402
0.46784	1.04503
0.485532	1.086
0.509118	1.12709
0.526809	1.16806
0.546461	1.18876
0.566117	1.22977
0.599531	1.29136
0.617223	1.33233
0.63688	1.37334
0.656531	1.39404
0.676187	1.43505
0.711566	1.49668
0.731222	1.53769
0.748909	1.55835
0.768571	1.61967
0.786257	1.64033
0.819671	1.70192
0.839328	1.74293
0.85702	1.7839
0.874706	1.80456
0.894368	1.86588
0.921878	1.88674
0.939575	1.94801
0.957256	1.94837
0.976913	1.98938
