Adsorption isotherm of N-propane on CuBTC
DOI: 10.1016/j.ces.2009.04.010
Adsorbate N-propane: InChIKey ATUOYWHBWRKTHZ-UHFFFAOYSA-N
Temperature: 348 K
Tabular data in the source: 0
pressure (bar)	uptake (mmol/g)
0.0119403	0.0687843
0.0447761	0.309223
0.0746269	0.583748
0.101493	0.858171
0.125373	1.13249
0.152239	1.40691
0.176119	1.64705
0.197015	1.85289
0.220896	2.12721
0.247761	2.36744
0.265672	2.60737
0.289552	2.77913
0.313433	3.01926
0.337313	3.2594
0.364179	3.49963
0.39403	3.77415
0.426866	3.98041
0.456716	4.22074
0.483582	4.35841
0.519403	4.59895
0.552239	4.77102
0.58209	4.90879
0.629851	5.11555
0.674627	5.28802
0.722388	5.42641
0.764179	5.5304
0.814925	5.70307
0.856716	5.80707
0.901493	5.94535
0.949254	5.98117
0.99403	6.01689
