Adsorption isotherm of N-propane on CuBTC
DOI: 10.1016/j.ces.2009.04.010
Adsorbate N-propane: InChIKey ATUOYWHBWRKTHZ-UHFFFAOYSA-N
Temperature: 348 K
Tabular data in the source: 0
pressure (bar)	uptake (mmol/g)
0.0197562	0.447102
0.0316089	0.711302
0.0375427	0.873859
0.0690668	1.23998
0.0848637	1.56517
0.106555	1.89049
0.116418	2.05313
0.138119	2.41905
0.149946	2.58172
0.15981	2.74436
0.171642	2.92734
0.191349	3.1714
0.205136	3.31381
0.216964	3.47649
0.230751	3.6189
0.244544	3.78162
0.258331	3.92403
0.272118	4.06644
0.285901	4.18855
0.301648	4.31069
0.329198	4.49399
0.344945	4.61614
0.362647	4.69772
0.380354	4.7996
0.405924	4.92195
0.423626	5.00353
0.441327	5.0851
0.468857	5.18718
0.486554	5.24846
0.506216	5.30977
0.523912	5.37104
0.543569	5.41205
0.561266	5.47333
0.580922	5.51433
0.598619	5.57561
0.616311	5.61657
0.635967	5.65758
0.657593	5.71894
0.677245	5.73964
0.694936	5.78061
0.714593	5.82162
0.734244	5.84232
0.751931	5.86298
0.771587	5.90399
0.78731	5.92462
0.806961	5.94532
0.824648	5.96598
0.844304	6.00699
0.861996	6.04796
0.873784	6.0482
0.893435	6.0689
0.913087	6.08961
0.930774	6.11027
0.95043	6.15128
0.968112	6.15164
0.987763	6.17234
