Adsorption isotherm of N-propane on CuBTC
DOI: 10.1016/j.ces.2009.04.010
Adsorbate N-propane: InChIKey ATUOYWHBWRKTHZ-UHFFFAOYSA-N
Temperature: 373 K
Tabular data in the source: 0
pressure (bar)	uptake (mmol/g)
0.0492259	0.4477
0.0649729	0.569847
0.0787604	0.712259
0.102376	0.875175
0.118123	0.997322
0.13387	1.11947
0.147653	1.24158
0.171248	1.32327
0.183071	1.46565
0.200783	1.58783
0.214565	1.70994
0.230312	1.83209
0.257862	2.01539
0.273609	2.13754
0.291316	2.23942
0.307058	2.34126
0.334603	2.50426
0.348386	2.62636
0.364133	2.74851
0.381835	2.83009
0.40742	3.01335
0.423157	3.09489
0.438899	3.19673
0.456601	3.27831
0.474308	3.38019
0.503812	3.52292
0.521514	3.6045
0.539216	3.68608
0.556917	3.76765
0.574619	3.84923
0.592321	3.93081
0.619866	4.0938
0.637553	4.11447
0.657214	4.17578
0.674916	4.25736
0.712274	4.37994
0.729971	4.44122
0.749632	4.50253
0.769289	4.54354
0.786985	4.60481
0.818435	4.66636
0.834167	4.7276
0.853828	4.78891
0.87348	4.80961
0.891177	4.87089
0.912803	4.93224
0.932454	4.95294
0.950151	5.01422
0.969802	5.03492
