Adsorption isotherm of Propene on CuBTC
DOI: 10.1016/j.ces.2009.04.010
Adsorbate Propene: InChIKey QQONPFPTGQHPMA-UHFFFAOYSA-N
Temperature: 323 K
Tabular data in the source: 0
pressure (bar)	uptake (mmol/g)
0.029963	0.208178
0.0506967	0.386617
0.0852615	0.654275
0.126746	0.951673
0.158984	1.27881
0.191248	1.51673
0.216566	1.81413
0.241902	2.05204
0.262618	2.28996
0.283361	2.43866
0.315616	2.70632
0.345562	2.97398
0.366313	3.09294
0.387046	3.27138
0.403161	3.44981
0.428531	3.56877
0.446964	3.71747
0.472325	3.86617
0.488457	3.98513
0.509199	4.13383
0.534552	4.31227
0.553002	4.40149
0.582965	4.60967
0.596779	4.75836
0.622157	4.84758
0.665994	4.99628
0.705204	5.17472
0.737502	5.29368
0.774402	5.47212
0.799797	5.50186
0.818247	5.59108
0.850554	5.6803
0.873623	5.76952
0.896701	5.829
0.922079	5.91822
0.942847	5.9777
0.965925	6.03717
0.988994	6.12639
