Adsorption isotherm of Propene on Zeolite 13X
DOI: 10.1016/j.ces.2009.04.010
Adsorbate Propene: InChIKey QQONPFPTGQHPMA-UHFFFAOYSA-N
Temperature: 373 K
Tabular data in the source: 0
pressure (bar)	uptake (mmol/g)
0.0222167	0.864977
0.0550975	1.16481
0.0921694	1.36495
0.166411	1.59897
0.218015	1.68296
0.282005	1.78379
0.3646	1.8683
0.428619	1.91924
0.502979	1.95373
0.67235	2.03968
0.765304	2.07448
0.909921	2.09351
0.969818	2.12776
