Adsorption isotherm of N-Butane on CuBTC
DOI: 10.1016/j.ces.2009.04.010
Adsorbate N-Butane: InChIKey IJDNQMDRQITEOD-UHFFFAOYSA-N
Temperature: 348 K
Tabular data in the source: 0
pressure (bar)	uptake (mmol/g)
0.00597015	0.564356
0.0149254	1.0099
0.0179104	1.24752
0.0208955	1.60396
0.0298507	2.22772
0.038806	3.20792
0.0477612	3.80198
0.0626866	4.27723
0.0776119	4.57426
0.0865672	4.84158
0.0985075	5.0495
0.128358	5.19802
0.152239	5.34653
0.179104	5.46535
0.21194	5.58416
0.241791	5.64356
0.268657	5.67327
0.292537	5.70297
0.322388	5.73267
0.349254	5.76238
0.379104	5.82178
0.408955	5.85149
0.435821	5.88119
0.465672	5.91089
0.486567	5.91089
0.516418	5.94059
0.546269	5.94059
0.576119	5.9703
0.602985	6
0.629851	6.0297
0.659701	6.05941
0.689552	6.08911
0.719403	6.11881
0.749254	6.14851
0.776119	6.17822
0.80597	6.20792
0.835821	6.20792
0.865672	6.20792
0.895522	6.20792
0.925373	6.20792
0.955224	6.20792
0.985075	6.20792
