Adsorption isotherm of N-propane on CuBTC
DOI: 10.1016/j.ces.2009.04.010
Adsorbate N-propane: InChIKey ATUOYWHBWRKTHZ-UHFFFAOYSA-N
Temperature: 373 K
Tabular data in the source: 0
pressure (bar)	uptake (mmol/g)
0.0297619	0.508637
0.0505952	0.821545
0.0714286	0.977591
0.0982143	1.17262
0.125	1.36765
0.14881	1.52358
0.175595	1.7186
0.202381	1.91363
0.229167	2.10866
0.252976	2.26459
0.279762	2.45962
0.306548	2.65465
0.333333	2.81046
0.360119	3.00549
0.386905	3.1613
0.41369	3.35633
0.440476	3.51214
0.467262	3.66795
0.491071	3.78466
0.517857	3.94048
0.544643	4.09629
0.574405	4.25198
0.60119	4.4078
0.627976	4.52439
0.657738	4.64087
0.684524	4.79669
0.71131	4.91328
0.741071	4.99055
0.767857	5.10714
0.797619	5.18441
0.824405	5.26179
0.854167	5.33905
0.880952	5.41643
0.910714	5.53291
0.9375	5.61029
0.967262	5.68756
