Adsorption isotherm of N-propane on CuBTC
DOI: 10.1016/j.ces.2009.04.010
Adsorbate N-propane: InChIKey ATUOYWHBWRKTHZ-UHFFFAOYSA-N
Temperature: 348 K
Tabular data in the source: 0
pressure (bar)	uptake (mmol/g)
0.0177566	0.304929
0.0355132	0.609858
0.0572191	0.996086
0.0848239	1.40274
0.102585	1.72797
0.132165	2.17527
0.18347	3.09002
0.31545	4.51402
0.39807	4.94209
0.457064	5.16664
0.553392	5.41225
0.649705	5.59695
0.78333	5.72149
0.871769	5.84511
0.999481	5.88831
