Adsorption isotherm of N-propane on CuBTC
DOI: 10.1016/j.ces.2009.04.010
Adsorbate N-propane: InChIKey ATUOYWHBWRKTHZ-UHFFFAOYSA-N
Temperature: 323 K
Tabular data in the source: 0
pressure (bar)	uptake (mmol/g)
0.0119048	0.823063
0.0208333	1.17565
0.0357143	1.52801
0.047619	1.9197
0.0565476	2.27229
0.0684524	2.62477
0.077381	3.01657
0.0892857	3.36905
0.10119	3.72152
0.110119	4.11333
0.122024	4.4658
0.133929	4.81828
0.145833	5.17075
0.160714	5.52311
0.178571	5.83613
0.196429	6.14916
0.217262	6.42285
0.238095	6.65733
0.264881	6.85236
0.291667	7.00817
0.318452	7.12477
0.348214	7.20203
0.375	7.31863
0.404762	7.43511
0.434524	7.47316
0.46131	7.55054
0.491071	7.6278
0.517857	7.70518
0.547619	7.78245
0.577381	7.82049
0.604167	7.89788
0.633929	7.93592
0.66369	7.97397
0.690476	8.01214
0.720238	8.01097
0.75	8.04902
0.779762	8.08707
0.809524	8.12512
0.839286	8.12395
0.866071	8.08368
0.895833	8.08252
0.925595	8.08135
0.955357	8.08018
0.985119	8.07901
