Adsorption isotherm of N-propane on CuBTC
DOI: 10.1016/j.ces.2009.04.010
Adsorbate N-propane: InChIKey ATUOYWHBWRKTHZ-UHFFFAOYSA-N
Temperature: 323 K
Tabular data in the source: 0
pressure (bar)	uptake (mmol/g)
0.0119125	0.507856
0.0336533	1.03622
0.0593582	1.70679
0.091007	2.58053
0.12671	3.96196
0.180034	5.1001
0.248937	5.67003
0.33744	6.05761
0.410177	6.24183
0.498626	6.40606
0.600818	6.52997
0.697105	6.61314
0.81108	6.71698
0.901468	6.77973
0.995786	6.84255
