Adsorption isotherm of Propene on CuBTC
DOI: 10.1016/j.ces.2009.04.010
Adsorbate Propene: InChIKey QQONPFPTGQHPMA-UHFFFAOYSA-N
Temperature: 323 K
Tabular data in the source: 0
pressure (bar)	uptake (mmol/g)
0.00390625	0.78553
0.0117188	2.04651
0.0273438	3.57623
0.0527344	5.04393
0.09375	6.07752
0.140625	6.71835
0.1875	7.11111
0.257812	7.37984
0.341797	7.54522
0.402344	7.66925
0.521484	7.75194
0.640625	7.79328
0.761719	7.8553
0.880859	7.87597
0.990234	7.89664
