Adsorption isotherm of Propene on CuBTC
DOI: 10.1016/j.ces.2009.04.010
Adsorbate Propene: InChIKey QQONPFPTGQHPMA-UHFFFAOYSA-N
Temperature: 348 K
Tabular data in the source: 0
pressure (bar)	uptake (mmol/g)
0.0115473	0.714098
0.0230947	0.982099
0.034642	1.27984
0.0461894	1.54784
0.0554273	1.81577
0.0646651	2.02423
0.073903	2.29216
0.0854503	2.56016
0.0946882	2.82809
0.106236	3.0961
0.115473	3.36403
0.124711	3.63196
0.133949	3.89989
0.143187	4.16783
0.154734	4.43583
0.166282	4.70383
0.184758	5.06126
0.198614	5.29959
0.212471	5.53792
0.237875	5.83607
0.256351	6.01506
0.274827	6.16431
0.295612	6.34336
0.316397	6.46294
0.337182	6.58252
0.357968	6.7021
0.378753	6.79193
0.401848	6.91158
0.422633	6.97168
0.445727	7.03184
0.466513	7.09194
0.489607	7.15211
0.510393	7.2122
0.533487	7.27237
0.554273	7.30273
0.575058	7.39257
0.598152	7.42299
0.621247	7.48316
0.642032	7.51352
0.665127	7.57368
0.688222	7.60411
0.709007	7.66421
0.732102	7.69463
0.750577	7.7844
0.769053	7.78495
0.792148	7.81538
0.812933	7.84574
0.836028	7.87616
0.859122	7.87685
0.882217	7.87754
0.903002	7.9079
0.926097	7.93832
0.949192	7.96875
0.972286	7.99918
