Adsorption isotherm of N-Butane on CuBTC
DOI: 10.1016/j.ces.2009.04.010
Adsorbate N-Butane: InChIKey IJDNQMDRQITEOD-UHFFFAOYSA-N
Temperature: 323 K
Tabular data in the source: 0
pressure (bar)	uptake (mmol/g)
0.00386847	0.924701
0.00967118	2.27155
0.0193424	3.98029
0.0251451	4.92513
0.0618956	5.58918
0.116054	5.83148
0.222437	5.93412
0.340426	5.99679
0.471954	6.03964
0.59381	6.02199
0.723404	6.02459
0.820116	6.00643
0.988395	5.98972
