Adsorption isotherm of Propene on CuBTC
DOI: 10.1016/j.ces.2009.04.010
Adsorbate Propene: InChIKey QQONPFPTGQHPMA-UHFFFAOYSA-N
Temperature: 348 K
Tabular data in the source: 0
pressure (bar)	uptake (mmol/g)
0.0273438	1.24031
0.0488281	2.31525
0.0820312	3.41085
0.126953	4.38243
0.177734	5.0646
0.238281	5.62274
0.333984	6.18088
0.398438	6.49096
0.509766	6.75969
0.601562	6.96641
0.703125	7.09044
0.802734	7.17313
0.904297	7.21447
0.990234	7.29716
