Adsorption isotherm of Propene on CuBTC
DOI: 10.1016/j.ces.2009.04.010
Adsorbate Propene: InChIKey QQONPFPTGQHPMA-UHFFFAOYSA-N
Temperature: 423 K
Tabular data in the source: 0
pressure (bar)	uptake (mmol/g)
0.0277136	0.179263
0.0461894	0.358251
0.0600462	0.388403
0.0808314	0.50798
0.106236	0.657435
0.127021	0.747272
0.157044	0.896864
0.180139	0.98677
0.203233	1.07668
0.224018	1.16651
0.247113	1.25642
0.267898	1.34626
0.290993	1.40642
0.311778	1.49626
0.334873	1.58617
0.355658	1.64626
0.378753	1.73617
0.399538	1.82601
0.422633	1.88617
0.443418	1.97601
0.466513	2.03618
0.487298	2.12602
0.510393	2.18618
0.531178	2.27602
0.554273	2.36593
0.575058	2.42602
0.598152	2.51593
0.621247	2.5761
0.644342	2.666
0.665127	2.7261
0.685912	2.81594
0.709007	2.8761
0.732102	2.93627
0.752887	3.02611
0.775982	3.11601
0.796767	3.17611
0.819861	3.23628
0.840647	3.29638
0.863741	3.38628
0.884527	3.44638
0.907621	3.53629
0.930716	3.62619
0.951501	3.65655
0.974596	3.71672
