Adsorption isotherm of N-Butane on CuBTC
DOI: 10.1016/j.ces.2009.04.010
Adsorbate N-Butane: InChIKey IJDNQMDRQITEOD-UHFFFAOYSA-N
Temperature: 423 K
Tabular data in the source: 0
pressure (bar)	uptake (mmol/g)
0.0119403	0.0891089
0.0298507	0.207921
0.0686567	0.445545
0.107463	0.742574
0.128358	0.920792
0.152239	1.09901
0.176119	1.27723
0.2	1.48515
0.223881	1.66337
0.247761	1.84158
0.262687	1.93069
0.286567	2.10891
0.310448	2.28713
0.334328	2.43564
0.346269	2.49505
0.370149	2.67327
0.397015	2.82178
0.423881	2.94059
0.450746	3.08911
0.477612	3.20792
0.504478	3.32673
0.531343	3.41584
0.558209	3.56436
0.585075	3.68317
0.614925	3.74257
0.641791	3.80198
0.671642	3.86139
0.701493	3.89109
0.728358	3.9802
0.758209	4.0396
0.785075	4.09901
0.814925	4.15842
0.841791	4.18812
0.871642	4.24752
0.901493	4.27723
0.928358	4.30693
0.955224	4.33663
