Adsorption isotherm of Propene on CuBTC
DOI: 10.1016/j.ces.2009.04.010
Adsorbate Propene: InChIKey QQONPFPTGQHPMA-UHFFFAOYSA-N
Temperature: 423 K
Tabular data in the source: 0
pressure (bar)	uptake (mmol/g)
0.03125	0.22739
0.0429688	0.310078
0.0683594	0.475452
0.0839844	0.578811
0.107422	0.744186
0.125	0.847545
0.160156	1.03359
0.177734	1.13695
0.208984	1.28165
0.226562	1.36434
0.244141	1.4677
0.279297	1.6124
0.296875	1.69509
0.314453	1.77778
0.332031	1.83979
0.365234	1.94315
0.380859	2.04651
0.416016	2.19121
0.433594	2.25323
0.453125	2.29457
0.470703	2.37726
0.488281	2.43928
0.511719	2.48062
0.527344	2.56331
0.546875	2.62532
0.564453	2.68734
0.583984	2.72868
0.609375	2.7907
0.626953	2.85271
0.646484	2.91473
0.664062	2.95607
0.683594	2.99742
0.701172	3.05943
0.720703	3.14212
0.738281	3.14212
0.757812	3.20413
0.775391	3.22481
0.814453	3.34884
0.832031	3.36951
0.851562	3.41085
0.871094	3.4522
0.888672	3.47287
0.908203	3.51421
0.935547	3.61757
0.953125	3.63824
0.972656	3.65891
