Adsorption isotherm of N-Butane on CuBTC
DOI: 10.1016/j.ces.2009.04.010
Adsorbate N-Butane: InChIKey IJDNQMDRQITEOD-UHFFFAOYSA-N
Temperature: 373 K
Tabular data in the source: 0
pressure (bar)	uptake (mmol/g)
0.0179104	0.507463
0.038806	1.16418
0.0537313	1.73134
0.0746269	2.62687
0.116418	4.0597
0.155224	4.65672
0.226866	5.01493
0.322388	5.25373
0.402985	5.34328
0.522388	5.40299
0.647761	5.46269
0.823881	5.49254
0.98806	5.52239
