Adsorption isotherm of Propene on CuBTC
DOI: 10.1016/j.ces.2009.04.010
Adsorbate Propene: InChIKey QQONPFPTGQHPMA-UHFFFAOYSA-N
Temperature: 323 K
Tabular data in the source: 0
pressure (bar)	uptake (mmol/g)
0.0113928	0.535316
0.0228629	0.802974
0.0366596	1.01115
0.0550753	1.21933
0.07119	1.39777
0.0896057	1.60595
0.10572	1.78439
0.124136	1.99257
0.140251	2.171
0.156357	2.37918
0.174773	2.58736
0.190879	2.79554
0.206985	3.00372
0.225409	3.18216
0.241524	3.36059
0.25994	3.56877
0.276046	3.77695
0.292161	3.95539
0.310576	4.16357
0.326691	4.34201
0.345115	4.52045
0.36354	4.69888
0.381964	4.87732
0.400388	5.05576
0.42113	5.20446
0.441881	5.32342
0.462632	5.44238
0.483374	5.59108
0.504125	5.71004
0.524876	5.829
0.545618	5.9777
0.566369	6.09665
0.587112	6.24535
0.607871	6.33457
0.630949	6.39405
0.651717	6.45353
0.674794	6.51301
0.695562	6.57249
0.71864	6.63197
0.739408	6.69145
0.762485	6.75093
0.783253	6.81041
0.806331	6.86989
0.829417	6.89963
0.850185	6.95911
0.873271	6.98885
0.894039	7.04833
0.917117	7.10781
0.940203	7.13755
0.960971	7.19703
0.984048	7.25651
