Adsorption isotherm of Propene on CuBTC
DOI: 10.1016/j.ces.2009.04.010
Adsorbate Propene: InChIKey QQONPFPTGQHPMA-UHFFFAOYSA-N
Temperature: 323 K
Tabular data in the source: 0
pressure (bar)	uptake (mmol/g)
0.0135048	1.21933
0.0180551	1.45725
0.020313	1.63569
0.027147	1.96283
0.0294049	2.14126
0.0339294	2.4684
0.0361788	2.67658
0.0430128	3.00372
0.0452707	3.18216
0.0474858	3.50929
0.052036	3.74721
0.0588872	4.01487
0.0656696	4.52045
0.0725208	4.7881
0.0793719	5.05576
0.0816127	5.29368
0.0861458	5.59108
0.090696	5.829
0.0998309	6.18587
0.106716	6.33457
0.120513	6.54275
0.145806	6.92937
0.15039	7.04833
0.16423	7.10781
0.175751	7.19703
0.191883	7.31599
0.198795	7.37546
0.210316	7.46468
0.226457	7.5539
0.235677	7.61338
0.24489	7.7026
0.263357	7.73234
0.277196	7.79182
0.288735	7.82156
0.304884	7.88104
0.318732	7.91078
0.332572	7.97026
0.35795	8.05948
0.3741	8.11896
0.399487	8.17844
0.420272	8.17844
0.441048	8.20818
0.459516	8.23792
0.480292	8.26766
0.503378	8.2974
0.524155	8.32714
0.540321	8.32714
0.565717	8.35688
0.588803	8.38662
0.60958	8.41636
0.625737	8.4461
0.648832	8.4461
0.671918	8.47584
0.688076	8.50558
0.71348	8.50558
0.752715	8.5948
0.787357	8.5948
0.815062	8.62454
0.838148	8.65428
0.87971	8.68401
0.916653	8.71375
0.942057	8.71375
0.962834	8.74349
0.981301	8.77323
