Adsorption isotherm of N-Butane on CuBTC
DOI: 10.1016/j.ces.2009.04.010
Adsorbate N-Butane: InChIKey IJDNQMDRQITEOD-UHFFFAOYSA-N
Temperature: 373 K
Tabular data in the source: 0
pressure (bar)	uptake (mmol/g)
0.0119403	1.07463
0.0179104	1.37313
0.0208955	1.67164
0.0268657	1.97015
0.0328358	2.23881
0.0358209	2.53731
0.041791	2.83582
0.0477612	3.13433
0.0537313	3.43284
0.0626866	3.70149
0.0686567	4
0.0776119	4.29851
0.0865672	4.56716
0.0955224	4.86567
0.110448	5.10448
0.128358	5.34328
0.149254	5.55224
0.173134	5.73134
0.2	5.85075
0.226866	5.97015
0.256716	6.02985
0.283582	6.14925
0.313433	6.20896
0.343284	6.20896
0.370149	6.23881
0.4	6.26866
0.429851	6.29851
0.459701	6.32836
0.486567	6.38806
0.516418	6.41791
0.546269	6.44776
0.576119	6.47761
0.602985	6.50746
0.629851	6.50746
0.656716	6.53731
0.686567	6.56716
0.716418	6.56716
0.746269	6.56716
0.776119	6.59701
0.80597	6.59701
0.835821	6.59701
0.865672	6.62687
0.895522	6.62687
0.922388	6.65672
0.952239	6.65672
0.979104	6.68657
