Adsorption isotherm of N-Butane on CuBTC
DOI: 10.1016/j.ces.2009.04.010
Adsorbate N-Butane: InChIKey IJDNQMDRQITEOD-UHFFFAOYSA-N
Temperature: 423 K
Tabular data in the source: 0
pressure (bar)	uptake (mmol/g)
0.0348162	0.141403
0.0560928	0.302635
0.0831721	0.484084
0.104449	0.585014
0.147002	0.947678
0.195358	1.33056
0.259188	1.91476
0.338491	2.59977
0.446809	3.32556
0.574468	3.81054
0.700193	4.15478
0.829787	4.33829
0.980658	4.46192
