Adsorption isotherm of N-Butane on CuBTC
DOI: 10.1016/j.ces.2009.04.010
Adsorbate N-Butane: InChIKey IJDNQMDRQITEOD-UHFFFAOYSA-N
Temperature: 423 K
Tabular data in the source: 0
pressure (bar)	uptake (mmol/g)
0.0290135	0.0608847
0.0444874	0.141598
0.065764	0.222427
0.0793037	0.303102
0.0928433	0.464178
0.11412	0.605309
0.12766	0.746285
0.158607	1.04841
0.172147	1.16929
0.185687	1.31027
0.205029	1.47146
0.218569	1.61243
0.232108	1.73331
0.247582	1.87432
0.266925	2.01542
0.280464	2.13629
0.295938	2.2572
0.311412	2.39822
0.326886	2.49903
0.350097	2.6804
0.367505	2.78126
0.382979	2.90217
0.400387	2.98292
0.415861	3.08374
0.433269	3.18459
0.460348	3.32584
0.477756	3.38649
0.497099	3.46728
0.512573	3.54799
0.531915	3.62878
0.549323	3.68943
0.564797	3.77015
0.588008	3.83091
0.605416	3.89157
0.624758	3.93216
0.644101	3.97275
0.661509	4.0334
0.678917	4.09405
0.711799	4.15501
0.729207	4.19556
0.748549	4.25625
0.765957	4.2968
0.783366	4.31725
0.802708	4.37794
0.820116	4.37829
0.843327	4.41896
0.860735	4.45951
0.880077	4.48
0.897485	4.52055
0.916828	4.54104
0.934236	4.56149
0.953578	4.58198
0.972921	4.62257
