Adsorption isotherm of N-propane on Zeolite 4A
DOI: 10.1016/j.ces.2009.04.010
Adsorbate N-propane: InChIKey ATUOYWHBWRKTHZ-UHFFFAOYSA-N
Temperature: 373 K
Tabular data in the source: 0
pressure (bar)	uptake (mmol/g)
0.0477178	0.355985
0.263485	0.641154
0.425311	0.757337
0.73029	0.803126
0.979253	0.934819
