Adsorption isotherm of Propene on CuBTC
DOI: 10.1016/j.ces.2009.04.010
Adsorbate Propene: InChIKey QQONPFPTGQHPMA-UHFFFAOYSA-N
Temperature: 373 K
Tabular data in the source: 0
pressure (bar)	uptake (mmol/g)
0.0161663	0.476317
0.0300231	0.714648
0.0369515	0.923032
0.0531178	1.04247
0.0715935	1.2512
0.0877598	1.45986
0.103926	1.63878
0.120092	1.84744
0.138568	2.05617
0.154734	2.26482
0.170901	2.47348
0.187067	2.68214
0.203233	2.8908
0.2194	3.09946
0.235566	3.30812
0.251732	3.51678
0.270208	3.72551
0.286374	3.90443
0.30485	4.11316
0.323326	4.2624
0.339492	4.44132
0.362587	4.65019
0.381062	4.82918
0.399538	5.00816
0.420323	5.06826
0.438799	5.21751
0.461894	5.33716
0.484988	5.4568
0.505774	5.57638
0.526559	5.69596
0.549654	5.78586
0.570439	5.90544
0.591224	6.02502
0.614319	6.08518
0.635104	6.17502
0.658199	6.20545
0.678984	6.26555
0.702079	6.32571
0.722864	6.38581
0.745958	6.44598
0.766744	6.50607
0.789838	6.56624
0.810624	6.62634
0.833718	6.65676
0.856813	6.68719
0.879908	6.74736
0.900693	6.77772
0.923788	6.80814
0.946882	6.83857
0.967667	6.89867
0.990762	6.92909
