Adsorption isotherm of N-Butane on CuBTC
DOI: 10.1016/j.ces.2009.04.010
Adsorbate N-Butane: InChIKey IJDNQMDRQITEOD-UHFFFAOYSA-N
Temperature: 348 K
Tabular data in the source: 0
pressure (bar)	uptake (mmol/g)
0.00967118	0.281601
0.0212766	0.824548
0.0386847	2.09123
0.0522244	3.13673
0.0696325	4.44361
0.121857	5.18838
0.206963	5.4715
0.286267	5.57359
0.400387	5.67639
0.533849	5.69917
0.676983	5.68195
0.823985	5.6849
0.990329	5.66815
