Adsorption isotherm of Propene on CuBTC
DOI: 10.1016/j.ces.2009.04.010
Adsorbate Propene: InChIKey QQONPFPTGQHPMA-UHFFFAOYSA-N
Temperature: 373 K
Tabular data in the source: 0
pressure (bar)	uptake (mmol/g)
0.015625	0.516796
0.0234375	0.702842
0.0410156	1.19897
0.0488281	1.38501
0.0566406	1.57106
0.078125	2.04651
0.0878906	2.23256
0.0976562	2.39793
0.109375	2.58398
0.138672	3.01809
0.152344	3.16279
0.164062	3.32817
0.177734	3.47287
0.205078	3.67959
0.216797	3.84496
0.232422	3.96899
0.248047	4.09302
0.263672	4.19638
0.292969	4.38243
0.310547	4.48579
0.326172	4.58915
0.363281	4.77519
0.380859	4.87855
0.398438	4.96124
0.425781	5.08527
0.445312	5.14729
0.462891	5.2093
0.488281	5.33333
0.507812	5.35401
0.525391	5.41602
0.548828	5.54005
0.568359	5.54005
0.585938	5.5814
0.613281	5.70543
0.628906	5.70543
0.648438	5.74677
0.667969	5.78811
0.685547	5.82946
0.710938	5.93282
0.726562	5.89147
0.744141	5.93282
0.763672	5.97416
0.78125	6.0155
0.810547	6.13953
0.826172	6.09819
0.84375	6.11886
0.863281	6.16021
0.880859	6.20155
0.916016	6.28424
0.931641	6.24289
0.949219	6.30491
0.96875	6.32558
