Adsorption isotherm of N-propane on CuBTC
DOI: 10.1016/j.ces.2009.04.010
Adsorbate N-propane: InChIKey ATUOYWHBWRKTHZ-UHFFFAOYSA-N
Temperature: 423 K
Tabular data in the source: 0
pressure (bar)	uptake (mmol/g)
0.0176818	0.000359022
0.0530604	0.0619911
0.0904136	0.164272
0.204418	0.389937
0.288948	0.594699
0.340048	0.676955
0.400982	0.80002
0.499265	1.00506
0.589688	1.20994
0.699773	1.47614
0.807879	1.68138
0.91008	1.84589
0.996589	2.11161
