Adsorption isotherm of Propene on Zeolite 13X
DOI: 10.1016/j.ces.2009.04.010
Adsorbate Propene: InChIKey QQONPFPTGQHPMA-UHFFFAOYSA-N
Temperature: 373 K
Tabular data in the source: 0
pressure (bar)	uptake (mmol/g)
0.0242926	0.848385
0.0571636	1.16485
0.0901132	1.34829
0.166411	1.59897
0.218005	1.69959
0.279949	1.76713
0.366666	1.86833
0.430685	1.91928
0.500913	1.9537
0.674416	2.03972
0.765304	2.07448
0.909911	2.11014
0.967752	2.12773
