Adsorption isotherm of N-propane on CuBTC
DOI: 10.1016/j.ces.2009.04.010
Adsorbate N-propane: InChIKey ATUOYWHBWRKTHZ-UHFFFAOYSA-N
Temperature: 323 K
Tabular data in the source: 0
pressure (bar)	uptake (mmol/g)
0.019811	0.670453
0.0316438	0.853434
0.0435364	1.28007
0.0534144	1.50362
0.0692413	1.95064
0.0751851	2.15381
0.0950061	2.86487
0.10095	3.06804
0.106889	3.2509
0.112833	3.45407
0.118771	3.63693
0.138567	4.24647
0.146471	4.42937
0.156339	4.61231
0.164242	4.79521
0.191832	5.14095
0.199731	5.30355
0.215478	5.42569
0.231225	5.54784
0.260734	5.71088
0.278431	5.77215
0.296133	5.85373
0.313835	5.93531
0.327617	6.05741
0.349228	6.05785
0.366915	6.07852
0.386577	6.13983
0.400354	6.24163
0.42197	6.26238
0.437687	6.26269
0.457339	6.2834
0.476995	6.32441
0.512374	6.38604
0.532025	6.40674
0.549712	6.42741
0.567404	6.46837
0.587055	6.48908
0.612606	6.53021
0.630292	6.55087
0.649939	6.55127
0.66959	6.57197
0.685318	6.6129
0.710858	6.61342
0.730509	6.63412
0.750156	6.63452
0.767843	6.65518
0.785524	6.65554
0.820908	6.73748
0.838585	6.71753
0.858231	6.71793
0.877878	6.71833
0.909332	6.80019
0.927004	6.75994
0.946655	6.78064
0.966302	6.78104
0.983989	6.80171
