Adsorption isotherm of N-propane on Zeolite 13X
DOI: 10.1016/j.ces.2009.04.010
Adsorbate N-propane: InChIKey ATUOYWHBWRKTHZ-UHFFFAOYSA-N
Temperature: 373 K
Tabular data in the source: 0
pressure (bar)	uptake (mmol/g)
0.0124481	0.0507594
0.0352697	0.237265
0.060166	0.372764
0.0995851	0.558988
0.128631	0.677426
0.188797	0.812326
0.217842	0.947755
0.290456	1.09943
0.369295	1.20004
0.439834	1.2668
0.512448	1.33353
0.724066	1.48284
0.848548	1.5317
0.997925	1.59712
