Adsorption isotherm of N-propane on CuBTC
DOI: 10.1016/j.ces.2009.04.010
Adsorbate N-propane: InChIKey ATUOYWHBWRKTHZ-UHFFFAOYSA-N
Temperature: 423 K
Tabular data in the source: 0
pressure (bar)	uptake (mmol/g)
0.0267857	0.155812
0.0535714	0.311625
0.0833333	0.388889
0.110119	0.505486
0.136905	0.582866
0.166667	0.660131
0.193452	0.776727
0.223214	0.853992
0.252976	0.931256
0.279762	1.00864
0.309524	1.0859
0.33631	1.16328
0.366071	1.24055
0.392857	1.31793
0.422619	1.35598
0.452381	1.43324
0.479167	1.51062
0.508929	1.58789
0.535714	1.66527
0.565476	1.70331
0.592262	1.7807
0.622024	1.85796
0.651786	1.89601
0.678571	1.97339
0.708333	2.05065
0.738095	2.0887
0.764881	2.16608
0.794643	2.20413
0.821429	2.28151
0.85119	2.31956
0.880952	2.35761
0.907738	2.43499
0.9375	2.51225
0.967262	2.5503
0.994048	2.62768
