Adsorption isotherm of N-propane on CuBTC
DOI: 10.1016/j.ces.2009.04.010
Adsorbate N-propane: InChIKey ATUOYWHBWRKTHZ-UHFFFAOYSA-N
Temperature: 373 K
Tabular data in the source: 0
pressure (bar)	uptake (mmol/g)
0.037413	0.345937
0.0905532	0.732803
0.159455	1.30273
0.24605	1.91363
0.324775	2.48375
0.397597	3.01315
0.492034	3.56329
0.608078	4.09357
0.702446	4.35944
0.808612	4.66616
0.902944	4.78991
0.989419	4.91349
