Adsorption isotherm of N-Butane on CuBTC
DOI: 10.1016/j.ces.2009.04.010
Adsorbate N-Butane: InChIKey IJDNQMDRQITEOD-UHFFFAOYSA-N
Temperature: 373 K
Tabular data in the source: 0
pressure (bar)	uptake (mmol/g)
0.0193424	0.502901
0.040619	1.14655
0.0560928	1.70967
0.0754352	2.61458
0.11412	3.98219
0.154739	4.58602
0.22824	4.98951
0.324952	5.21256
0.400387	5.29448
0.520309	5.37729
0.646035	5.39992
0.823985	5.4638
0.984526	5.48713
