Adsorption isotherm of Nitrogen on [Na2(NDA)(DMF)]
DOI: 10.1039/C3ce42208a
Adsorbate Nitrogen: InChIKey IJGRMHOSHXDMSA-UHFFFAOYSA-N
Temperature: 77 K
Tabular data in the source: 0
pressure (bar)	uptake (cm3(STP)/g)
0.0108428	0.0528475
0.0585515	0.479971
0.110597	0.74445
0.158305	0.901303
0.208183	1.05792
0.262397	1.21404
0.307937	1.26303
0.355645	1.41988
0.412028	1.46766
0.461905	1.51617
0.511783	1.56467
0.559492	1.61342
0.609368	1.71597
0.663583	1.764
0.711292	1.81274
0.761168	1.9153
0.813215	2.01762
0.860923	2.17447
0.912968	2.33084
