Adsorption isotherm of Carbon Dioxide on [Na2(NDA)(DMF)]
DOI: 10.1039/C3ce42208a
Adsorbate Carbon Dioxide: InChIKey CURLTUGMZLYLDI-UHFFFAOYSA-N
Temperature: 273 K
Tabular data in the source: 0
pressure (bar)	uptake (cm3(STP)/g)
2.09208	2.75024
3.87421	4.20415
5.73386	5.49566
7.67095	6.67881
9.3756	7.80864
11.2352	8.72177
12.9399	9.52727
14.6445	10.4949
16.5817	11.2997
18.2088	12.1055
20.0685	12.9105
21.7731	13.6079
23.6327	14.4669
25.2599	15.1646
27.1195	15.8074
28.9791	16.5584
30.7613	17.2556
32.6209	17.9525
