Adsorption isotherm of Water on PLLA-MOF-ENSIC
DOI: 10.1021/ie201378u
Adsorbate Water: InChIKey XLYOFNOQVPJJNP-UHFFFAOYSA-N
Temperature: 77 K
Tabular data in the source: 0
pressure (bar)	uptake (g/g)
0.0239284	-0.00278641
0.0901256	0.0225657
0.154914	0.0591854
0.249281	0.123974
0.328154	0.194397
0.411252	0.278904
0.4859	0.388763
0.563365	0.515523
0.619703	0.639467
0.674633	0.774678
0.72252	0.90989
0.776041	1.09862
0.828154	1.31271
0.866182	1.47045
0.899985	1.6451
