Adsorption isotherm of Water on CuBTC
DOI: 10.1021/ie201378u
Adsorbate Water: InChIKey XLYOFNOQVPJJNP-UHFFFAOYSA-N
Temperature: 77 K
Tabular data in the source: 0
pressure (bar)	uptake (g/g)
0.015166	0.654394
0.025177	4.6874
0.0480593	11.123
0.085243	19.0174
0.120997	23.9943
0.15675	28.7138
0.219676	34.7204
0.299764	39.3541
0.371272	42.3574
0.442779	44.9316
0.525727	47.1626
0.622977	48.793
0.717366	50.2518
0.778862	51.1956
0.85037	52.0537
0.898994	52.5686
