Adsorption isotherm of Water on PLLA-MOF
DOI: 10.1021/ie201378u
Adsorbate Water: InChIKey XLYOFNOQVPJJNP-UHFFFAOYSA-N
Temperature: 77 K
Tabular data in the source: 0
pressure (bar)	uptake (g/g)
0.0520974	0.00566429
0.149281	0.0789037
0.336604	0.295805
0.428154	0.380312
0.526745	0.40003
0.619703	0.535242
0.707027	0.659185
0.809844	0.831016
0.90421	1.53806
0.907027	1.18876
0.907027	1.98031
