Adsorption isotherm of Water on PLLA-MOF-ENSIC
DOI: 10.1021/ie201378u
Adsorbate Water: InChIKey XLYOFNOQVPJJNP-UHFFFAOYSA-N
Temperature: 77 K
Tabular data in the source: 0
pressure (bar)	uptake (g/g)
0.0957594	0.0169319
0.156323	0.0563685
0.239421	0.10989
0.323928	0.183129
0.398576	0.253552
0.505619	0.397214
0.571816	0.515523
0.646464	0.662002
0.714069	0.831016
0.770407	0.99158
0.835196	1.21412
0.90421	1.50707
