Adsorption isotherm of Water on PLLA
DOI: 10.1021/ie201378u
Adsorbate Water: InChIKey XLYOFNOQVPJJNP-UHFFFAOYSA-N
Temperature: 77 K
Tabular data in the source: 0
pressure (bar)	uptake (g/g)
0.0647735	0.014115
0.135196	0.0225657
0.232379	0.0507347
0.308435	0.0817206
0.376041	0.115523
0.446464	0.157777
0.518295	0.211298
0.571816	0.253552
0.645055	0.326791
0.729562	0.425383
0.797168	0.529608
0.843647	0.60003
0.898576	0.695805
