Adsorption isotherm of Water on CuBTC
DOI: 10.1021/ie201378u
Adsorbate Water: InChIKey XLYOFNOQVPJJNP-UHFFFAOYSA-N
Temperature: 77 K
Tabular data in the source: 0
pressure (bar)	uptake (g/g)
0.0137359	0.31116
0.115276	24.8524
0.309776	41.0702
0.407025	42.0999
0.505705	42.958
0.605815	44.0735
0.701635	49.9943
0.800315	54.4564
0.901855	56.0867
