Adsorption isotherm of Water on PLLA-ENSIC
DOI: 10.1021/ie201378u
Adsorbate Water: InChIKey XLYOFNOQVPJJNP-UHFFFAOYSA-N
Temperature: 77 K
Tabular data in the source: 0
pressure (bar)	uptake (g/g)
0.0535059	0.00566429
0.146464	0.0197488
0.338013	0.0845375
0.430971	0.126791
0.526745	0.183129
0.62252	0.247918
0.719703	0.343692
0.809844	0.492988
0.907027	0.676087
