Adsorption isotherm of Carbon Dioxide on MIL-101(Cr)@GNP
DOI: 10.1021/acs.iecr.6b04538
Article source: Figure 8
Adsorbate Carbon Dioxide: InChIKey CURLTUGMZLYLDI-UHFFFAOYSA-N
Kind: experiment
Temperature: 298 K
Tabular data in the source: 0
pressure (bar)	uptake (mmol/g)
0.456553	1.2419
1.03526	2.11551
2.0146	4.08635
3.0162	5.65073
3.99555	7.05255
5.06392	9.14528
6.02101	10.9129
7.00036	12.6805
7.9797	14.3262
9.00356	15.1793
9.96065	16.5405
15.0132	17.9811
20.0212	18.8325
24.9624	19.2368
29.9927	19.8239
40.0087	20.5918
