Adsorption isotherm of Nitrogen on MIL101(Cr)
DOI: 10.1021/acs.iecr.6b04538
Article source: Figure 3
Adsorbate Nitrogen: InChIKey IJGRMHOSHXDMSA-UHFFFAOYSA-N
Kind: experiment
Temperature: 77 K
Tabular data in the source: 0
pressure (bar)	uptake (mmol/g)
0.006602	6.80204
0.030383	9.44269
0.064731	11.3498
0.085587	12.1322
0.137065	14.4673
0.197758	16.4844
0.248747	18.4894
0.301448	18.8317
0.356447	19.0273
0.389256	19.0762
0.449333	19.2229
0.508012	19.2229
0.553288	19.174
0.591175	19.174
0.637849	19.2718
0.69053	19.3696
0.737656	19.3451
0.789411	19.4185
0.816671	19.4185
0.842087	19.4674
0.868886	19.4674
0.891986	19.4429
0.917858	19.4185
0.945134	19.6141
0.973779	19.5896
0.994561	19.4674
1.00995	21.2034
1.00998	21.5212
0.979426	20.8366
0.951231	20.7143
0.923967	20.6654
0.896703	20.6165
0.862512	20.6165
0.834315	20.4698
0.801976	20.5187
0.761307	20.3965
0.708176	20.4454
0.65734	20.2987
0.61483	20.2742
0.57463	20.2498
0.53165	20.1275
0.481284	20.0786
0.418435	19.9319
0.374997	19.8586
0.32645	19.4674
0.244189	19.2473
0.207085	17.5358
0.182043	16.4111
0.169081	16.1177
0.143149	15.4086
0.12035	13.477
0.096714	12.5968
0.073538	11.6921
0.047565	10.4941
0.030379	9.39379
