Adsorption isotherm of Nitrogen on MIL101(Cr)/GNP (5%)
DOI: 10.1021/acs.iecr.6b04538
Article source: Figure 3
Adsorbate Nitrogen: InChIKey IJGRMHOSHXDMSA-UHFFFAOYSA-N
Kind: experiment
Temperature: 77 K
Tabular data in the source: 0
pressure (bar)	uptake (mmol/g)
0.002938	7.19325
0.025869	10.7386
0.055624	12.988
0.076527	14.3328
0.100637	15.3597
0.113203	16.46
0.133631	17.658
0.159087	18.196
0.175323	18.9784
0.199829	19.1984
0.225806	20.4454
0.252222	21.4234
0.288782	22.1325
0.38075	22.4014
0.458851	22.597
0.509219	22.6704
0.561422	22.5726
0.609938	22.597
0.65477	22.7682
0.692187	22.6704
0.723166	22.9393
0.755971	22.9393
0.787398	23.0371
0.816502	22.9882
0.848395	23.1349
0.876112	23.0616
0.900616	23.2572
0.926058	23.624
0.963544	24.3575
0.98991	24.7242
1.00893	25.7022
1.01227	26.9981
0.992773	25.8245
0.967248	24.4553
0.945032	23.9907
0.906673	23.8685
0.860446	23.5995
0.821157	23.4039
0.788346	23.3305
0.737051	23.2327
0.688067	23.1349
0.633538	23.0371
0.585942	22.9638
0.536034	22.866
0.481043	22.7682
0.432983	22.6704
0.390933	22.6215
0.3618	22.3281
0.323907	22.2547
0.273529	22.0591
0.241129	21.3745
0.227202	20.5676
0.204022	19.6141
0.179023	19.0273
0.143804	17.7558
0.111338	16.2644
0.08999	15.1152
0.075583	14.0883
0.05514	12.719
0.024479	10.6897
