Adsorption isotherm of Nitrogen on MIL101(Cr)/GNP (10%)
DOI: 10.1021/acs.iecr.6b04538
Article source: Figure 3
Adsorbate Nitrogen: InChIKey IJGRMHOSHXDMSA-UHFFFAOYSA-N
Kind: experiment
Temperature: 77 K
Tabular data in the source: 0
pressure (bar)	uptake (mmol/g)
0.002836	5.94627
0.008653	9.27153
0.012948	10.9342
0.024133	12.1078
0.044148	13.8927
0.071531	15.3841
0.091503	16.6556
0.103608	17.7803
0.122622	18.6361
0.14026	19.6141
0.165293	20.6165
0.178264	21.0322
0.1968	21.6924
0.219986	22.7193
0.248283	24.0885
0.283916	24.7731
0.306548	24.6753
0.338425	24.6264
0.384191	24.9198
0.431327	25.0176
0.4854	25.1888
0.530688	25.2866
0.575978	25.4088
0.628203	25.58
0.677183	25.6289
0.727089	25.7022
0.779318	25.9223
0.82322	26.0201
0.862039	26.1179
0.892996	26.1179
0.916116	26.338
0.934162	26.6558
0.960058	26.9248
1.00179	28.783
1.0125	29.761
0.993932	28.6852
0.972588	27.5849
0.953618	27.2671
0.915696	26.8514
0.883337	26.6558
0.823262	26.5336
0.779822	26.4358
0.743771	26.2891
0.712814	26.2891
0.686472	26.2157
0.618538	26.0445
0.57048	25.9712
0.517793	25.8
0.465579	25.7511
0.411496	25.4577
0.369898	25.2866
0.32599	25.1154
0.325532	25.1643
0.281152	24.8709
0.24042	23.9907
0.221402	23.086
0.203321	22.3281
0.18014	21.3745
0.156544	20.9833
0.123605	19.3451
0.109207	18.4405
0.092457	17.0223
0.062282	15.2863
0.037215	13.8682
0.017665	12.1078
0.010067	9.61384
0.00384	6.92429
