Adsorption isotherm of Carbon Dioxide on Cr-MIL(101)
DOI: 10.1021/acs.iecr.6b04538
Article source: Figure 8
Adsorbate Carbon Dioxide: InChIKey CURLTUGMZLYLDI-UHFFFAOYSA-N
Kind: experiment
Temperature: 298 K
Tabular data in the source: 0
pressure (bar)	uptake (mmol/g)
0.011396	-0.078856
0.501068	0.733824
1.013	1.2823
1.97009	2.54187
3.06072	3.61848
3.99555	4.77644
5.01941	7.09274
5.95424	8.29135
6.93358	9.65252
8.09099	10.1194
9.00356	10.5864
9.96065	11.2363
15.0354	11.9454
19.9989	12.5935
24.9624	12.9368
29.9037	13.8085
39.9642	14.3731
