Adsorption isotherm of Nitrogen on MIL101(Cr)/GNP (15%)
DOI: 10.1021/acs.iecr.6b04538
Article source: Figure 3
Adsorbate Nitrogen: InChIKey IJGRMHOSHXDMSA-UHFFFAOYSA-N
Kind: experiment
Temperature: 77 K
Tabular data in the source: 0
pressure (bar)	uptake (mmol/g)
0.004428	4.05842
0.012403	5.35946
0.019359	6.24417
0.027738	6.47836
0.054878	7.6493
0.075556	7.96155
0.092822	8.63809
0.112052	9.28861
0.137666	9.83505
0.163742	10.0172
0.201151	10.4856
0.222881	11.6305
0.248469	11.8647
0.296661	11.9167
0.35468	11.8647
0.405837	12.0989
0.454032	12.1769
0.509113	12.281
0.55977	12.4111
0.608953	12.5412
0.658124	12.5412
0.71027	12.8274
0.759937	12.8795
0.80912	13.0096
0.839114	13.0096
0.862725	13.1137
0.900117	13.3739
0.927178	13.5821
0.960166	14.1025
0.981861	14.8311
1.0021	15.7418
1.00165	16.3142
0.984399	15.7938
0.962223	15.1953
0.940545	14.6749
0.910526	14.3887
0.882962	14.0504
0.848036	13.8683
0.821973	13.8423
0.786073	13.7902
0.736393	13.5821
0.688202	13.556
0.654272	13.53
0.595747	13.3999
0.556403	13.3218
0.503777	13.1657
0.46148	13.0616
0.40836	12.8795
0.365562	12.6453
0.317865	12.6453
0.249014	12.5152
0.219456	11.8387
0.185472	11.1621
0.163808	10.8238
0.129358	10.4595
0.108135	9.49678
0.084963	8.74217
0.069183	8.19573
0.043045	7.25898
0.016899	6.21815
