Adsorption isotherm of Sodium Chloride, Chicken Egg White Conalbumin, Water on Capto Q resin
DOI: 10.1016/j.chroma.2017.06.012
Article source: Figure 6
Adsorbate Sodium Chloride: InChIKey FAPWRFPIFSIZLT-UHFFFAOYSA-M
Adsorbate Chicken Egg White Conalbumin: InChIKey NIST-ISODB-0A56C45E8B4265973A88
Adsorbate Water: InChIKey XLYOFNOQVPJJNP-UHFFFAOYSA-N
Kind: experiment
Temperature: 298 K
Tabular data in the source: 0
pressure (bar)	Sodium Chloride fraction	Sodium Chloride uptake (mmol/L (wet volume))	Chicken Egg White Conalbumin fraction	Chicken Egg White Conalbumin uptake (mmol/L (wet volume))	Water fraction	Water uptake (mmol/L (wet volume))	total uptake (mmol/L (wet volume))
1.01325			-0.0549	90.46			
1.01325			-0.0429	69.53			
1.01325			-0.0304	39.3			
1.01325			0.02	115.78			
1.01325			0.0734	136.19			
1.01325			0.1917	164.87			
1.01325			0.4741	178.05			
1.01325			1.5082	182.69			
1.01325			2.7602	185.78			
1.01325			4.9704	188.35			
1.01325			8.1611	180.06			
