Adsorption isotherm of Sodium Chloride, Chicken Egg White Ovalbumin, Water on Capto Q resin
DOI: 10.1016/j.chroma.2017.06.012
Article source: Figure 6
Adsorbate Sodium Chloride: InChIKey FAPWRFPIFSIZLT-UHFFFAOYSA-M
Adsorbate Chicken Egg White Ovalbumin: InChIKey NIST-ISODB-031D601DDF8DC2C648F0
Adsorbate Water: InChIKey XLYOFNOQVPJJNP-UHFFFAOYSA-N
Kind: experiment
Temperature: 298 K
Tabular data in the source: 0
pressure (bar)	Sodium Chloride fraction	Sodium Chloride uptake (mmol/L (wet volume))	Chicken Egg White Ovalbumin fraction	Chicken Egg White Ovalbumin uptake (mmol/L (wet volume))	Water fraction	Water uptake (mmol/L (wet volume))	total uptake (mmol/L (wet volume))
1.01325			0.0772	19.5			
1.01325			0.6127	48.7			
1.01325			1.3538	63.12			
1.01325			2.328	74.25			
1.01325			3.4804	78.49			
1.01325			4.7562	82.06			
1.01325			5.9361	88.26			
1.01325			7.1571	93.48			
1.01325			8.3781	97.38			
