Adsorption isotherm of Sodium Chloride, Chicken Egg White Ovalbumin, Water on Capto Q resin
DOI: 10.1016/j.chroma.2017.06.012
Article source: Figure 6
Adsorbate Sodium Chloride: InChIKey FAPWRFPIFSIZLT-UHFFFAOYSA-M
Adsorbate Chicken Egg White Ovalbumin: InChIKey NIST-ISODB-031D601DDF8DC2C648F0
Adsorbate Water: InChIKey XLYOFNOQVPJJNP-UHFFFAOYSA-N
Kind: experiment
Temperature: 298 K
Tabular data in the source: 0
pressure (bar)	Sodium Chloride fraction	Sodium Chloride uptake (mmol/L (wet volume))	Chicken Egg White Ovalbumin fraction	Chicken Egg White Ovalbumin uptake (mmol/L (wet volume))	Water fraction	Water uptake (mmol/L (wet volume))	total uptake (mmol/L (wet volume))
1.01325			1.1333	6.01			
1.01325			2.3955	12.21			
1.01325			3.5753	16.77			
1.01325			4.9609	19.03			
1.01325			6.1819	22.61			
1.01325			7.4441	25.85			
1.01325			8.7611	30.08			
1.01325			10.1055	32.01			
1.01325			11.6008	31.96			
