Adsorption isotherm of Sodium Chloride, Chicken Egg White Conalbumin, Water on Capto Q resin
DOI: 10.1016/j.chroma.2017.06.012
Article source: Figure 6
Adsorbate Sodium Chloride: InChIKey FAPWRFPIFSIZLT-UHFFFAOYSA-M
Adsorbate Chicken Egg White Conalbumin: InChIKey NIST-ISODB-0A56C45E8B4265973A88
Adsorbate Water: InChIKey XLYOFNOQVPJJNP-UHFFFAOYSA-N
Kind: experiment
Temperature: 298 K
Tabular data in the source: 0
pressure (bar)	Sodium Chloride fraction	Sodium Chloride uptake (mmol/L (wet volume))	Chicken Egg White Conalbumin fraction	Chicken Egg White Conalbumin uptake (mmol/L (wet volume))	Water fraction	Water uptake (mmol/L (wet volume))	total uptake (mmol/L (wet volume))
1.01325			0.1633	18.891			
1.01325			0.3221	34			
1.01325			1.0096	49.495			
1.01325			1.4396	57.371			
1.01325			2.5386	66.148			
1.01325			3.2499	70.666			
1.01325			4.5226	74.148			
1.01325			5.4178	76.599			
1.01325			6.2466	86.927			
1.01325			7.4876	86.922			
1.01325			10.0776	87.171			
1.01325			12.6556	92.715			
