Adsorption isotherm of Sodium Chloride, Chicken Egg White Ovalbumin, Bovine Serum Albumin, Water on Capto Q resin
DOI: 10.1016/j.chroma.2017.06.012
Article source: Figure 7
Adsorbate Sodium Chloride: InChIKey FAPWRFPIFSIZLT-UHFFFAOYSA-M
Adsorbate Chicken Egg White Ovalbumin: InChIKey NIST-ISODB-031D601DDF8DC2C648F0
Adsorbate Bovine Serum Albumin: InChIKey NIST-ISODB-52CDAC8E72899271CC9F
Adsorbate Water: InChIKey XLYOFNOQVPJJNP-UHFFFAOYSA-N
Kind: experiment
Temperature: 298 K
Tabular data in the source: 0
pressure (bar)	Sodium Chloride fraction	Sodium Chloride uptake (g/l)	Chicken Egg White Ovalbumin fraction	Chicken Egg White Ovalbumin uptake (g/l)	Bovine Serum Albumin fraction	Bovine Serum Albumin uptake (g/l)	Water fraction	Water uptake (g/l)	total uptake (g/l)
1.01325					0.1651	17.693			
1.01325					0.3243	48.739			
1.01325					1.2383	64.114			
1.01325					2.7907	67.352			
1.01325					3.9369	77.872			
1.01325					5.7216	75.922			
1.01325					6.9355	84.897			
