Adsorption isotherm of Sodium Chloride, Chicken Egg White Conalbumin, Water on Capto Q resin
DOI: 10.1016/j.chroma.2017.06.012
Article source: Figure 6
Adsorbate Sodium Chloride: InChIKey FAPWRFPIFSIZLT-UHFFFAOYSA-M
Adsorbate Chicken Egg White Conalbumin: InChIKey NIST-ISODB-0A56C45E8B4265973A88
Adsorbate Water: InChIKey XLYOFNOQVPJJNP-UHFFFAOYSA-N
Kind: experiment
Temperature: 298 K
Tabular data in the source: 0
pressure (bar)	Sodium Chloride fraction	Sodium Chloride uptake (mmol/L (wet volume))	Chicken Egg White Conalbumin fraction	Chicken Egg White Conalbumin uptake (mmol/L (wet volume))	Water fraction	Water uptake (mmol/L (wet volume))	total uptake (mmol/L (wet volume))
1.01325			0.0245	21.64			
1.01325			0.1446	85.45			
1.01325			0.1599	55.5			
1.01325			0.3351	116.7			
1.01325			1.2398	129.39			
1.01325			2.3778	140.78			
1.01325			3.8593	143.7			
1.01325			5.4094	144.01			
1.01325			6.8908	147.58			
