Adsorption isotherm of Sodium Chloride, Bovine Serum Albumin, Water on Capto Q resin
DOI: 10.1016/j.chroma.2017.06.012
Article source: Figure 6
Adsorbate Sodium Chloride: InChIKey FAPWRFPIFSIZLT-UHFFFAOYSA-M
Adsorbate Bovine Serum Albumin: InChIKey NIST-ISODB-52CDAC8E72899271CC9F
Adsorbate Water: InChIKey XLYOFNOQVPJJNP-UHFFFAOYSA-N
Kind: experiment
Temperature: 298 K
Tabular data in the source: 0
pressure (bar)	Sodium Chloride fraction	Sodium Chloride uptake (mmol/L (wet volume))	Bovine Serum Albumin fraction	Bovine Serum Albumin uptake (mmol/L (wet volume))	Water fraction	Water uptake (mmol/L (wet volume))	total uptake (mmol/L (wet volume))
1.01325			-0.0036	41.33			
1.01325			0.0081	18.62			
1.01325			0.0257	139.75			
1.01325			0.0264	119.39			
1.01325			0.0355	171.08			
1.01325			0.0382	92.24			
1.01325			0.0389	71.87			
1.01325			0.231	186.22			
1.01325			1.4398	191.45			
1.01325			2.605	196.42			
1.01325			4.8269	198.27			
1.01325			7.6041	200.12			
