Adsorption isotherm of Sodium Chloride, Chicken Egg White Ovalbumin, Water on Capto Q resin
DOI: 10.1016/j.chroma.2017.06.012
Article source: Figure 6
Adsorbate Sodium Chloride: InChIKey FAPWRFPIFSIZLT-UHFFFAOYSA-M
Adsorbate Chicken Egg White Ovalbumin: InChIKey NIST-ISODB-031D601DDF8DC2C648F0
Adsorbate Water: InChIKey XLYOFNOQVPJJNP-UHFFFAOYSA-N
Kind: experiment
Temperature: 298 K
Tabular data in the source: 0
pressure (bar)	Sodium Chloride fraction	Sodium Chloride uptake (mmol/L (wet volume))	Chicken Egg White Ovalbumin fraction	Chicken Egg White Ovalbumin uptake (mmol/L (wet volume))	Water fraction	Water uptake (mmol/L (wet volume))	total uptake (mmol/L (wet volume))
1.01325			0.0792	38.26			
1.01325			0.2279	70.45			
1.01325			0.2953	88.19			
1.01325			0.8121	102.96			
1.01325			1.3019	111.81			
1.01325			2.2952	124.27			
1.01325			3.0166	128.19			
1.01325			4.0782	135.06			
1.01325			5.494	134.69			
1.01325			7.4266	147.77			
1.01325			9.6861	157.23			
