Adsorption isotherm of Sodium Chloride, Bovine Serum Albumin, Water on Capto Q resin
DOI: 10.1016/j.chroma.2017.06.012
Article source: Figure 3
Adsorbate Sodium Chloride: InChIKey FAPWRFPIFSIZLT-UHFFFAOYSA-M
Adsorbate Bovine Serum Albumin: InChIKey NIST-ISODB-52CDAC8E72899271CC9F
Adsorbate Water: InChIKey XLYOFNOQVPJJNP-UHFFFAOYSA-N
Kind: experiment
Temperature: 298 K
Tabular data in the source: 0
pressure (bar)	Sodium Chloride fraction	Sodium Chloride uptake (mmol/L (wet volume))	Bovine Serum Albumin fraction	Bovine Serum Albumin uptake (mmol/L (wet volume))	Water fraction	Water uptake (mmol/L (wet volume))	total uptake (mmol/L (wet volume))
1.01325			0.05989	7.711			
1.01325			0.20501	19.236			
1.01325			0.32295	24.736			
1.01325			0.45298	28.533			
1.01325			0.57545	34.032			
1.01325			0.70852	36.716			
1.01325			0.85067	38.875			
1.01325			0.98222	41.624			
1.01325			1.12891	42.146			
