Adsorption isotherm of Sodium Chloride, Chicken Egg White Ovalbumin, Water on Capto Q resin
DOI: 10.1016/j.chroma.2017.06.012
Article source: Figure 6
Adsorbate Sodium Chloride: InChIKey FAPWRFPIFSIZLT-UHFFFAOYSA-M
Adsorbate Chicken Egg White Ovalbumin: InChIKey NIST-ISODB-031D601DDF8DC2C648F0
Adsorbate Water: InChIKey XLYOFNOQVPJJNP-UHFFFAOYSA-N
Kind: experiment
Temperature: 298 K
Tabular data in the source: 0
pressure (bar)	Sodium Chloride fraction	Sodium Chloride uptake (mmol/L (wet volume))	Chicken Egg White Ovalbumin fraction	Chicken Egg White Ovalbumin uptake (mmol/L (wet volume))	Water fraction	Water uptake (mmol/L (wet volume))	total uptake (mmol/L (wet volume))
1.01325			0.396	14.72			
1.01325			1.4111	31.9			
1.01325			2.5561	41.26			
1.01325			3.7011	49.57			
1.01325			5.1056	54.22			
1.01325			6.7263	54.69			
1.01325			8.0658	61.95			
1.01325			9.5784	65.56			
1.01325			11.0261	69.17			
