Adsorption isotherm of Sodium Chloride, Chicken Egg White Conalbumin, Water on Capto Q resin
DOI: 10.1016/j.chroma.2017.06.012
Article source: Figure 6
Adsorbate Sodium Chloride: InChIKey FAPWRFPIFSIZLT-UHFFFAOYSA-M
Adsorbate Chicken Egg White Conalbumin: InChIKey NIST-ISODB-0A56C45E8B4265973A88
Adsorbate Water: InChIKey XLYOFNOQVPJJNP-UHFFFAOYSA-N
Kind: experiment
Temperature: 298 K
Tabular data in the source: 0
pressure (bar)	Sodium Chloride fraction	Sodium Chloride uptake (mmol/L (wet volume))	Chicken Egg White Conalbumin fraction	Chicken Egg White Conalbumin uptake (mmol/L (wet volume))	Water fraction	Water uptake (mmol/L (wet volume))	total uptake (mmol/L (wet volume))
1.01325			0.7559	6.15			
1.01325			2.242	12.29			
1.01325			3.3997	18.02			
1.01325			4.4709	25.4			
1.01325			6.0093	23.75			
1.01325			7.2361	29.48			
1.01325			8.4805	30.29			
1.01325			9.742	35.61			
1.01325			10.9863	37.66			
