Adsorption isotherm of Sodium Chloride, Chicken Egg White Conalbumin, Water on Capto Q resin
DOI: 10.1016/j.chroma.2017.06.012
Article source: Figure 6
Adsorbate Sodium Chloride: InChIKey FAPWRFPIFSIZLT-UHFFFAOYSA-M
Adsorbate Chicken Egg White Conalbumin: InChIKey NIST-ISODB-0A56C45E8B4265973A88
Adsorbate Water: InChIKey XLYOFNOQVPJJNP-UHFFFAOYSA-N
Kind: experiment
Temperature: 298 K
Tabular data in the source: 0
pressure (bar)	Sodium Chloride fraction	Sodium Chloride uptake (mmol/L (wet volume))	Chicken Egg White Conalbumin fraction	Chicken Egg White Conalbumin uptake (mmol/L (wet volume))	Water fraction	Water uptake (mmol/L (wet volume))	total uptake (mmol/L (wet volume))
1.01325			0.8247	4.037			
1.01325			2.1616	10.231			
1.01325			3.6283	14.745			
1.01325			5.1817	17.452			
1.01325			6.6267	22.871			
1.01325			8.1154	25.319			
1.01325			9.6474	27.509			
1.01325			11.2983	28.536			
1.01325			12.7977	31.501			
