Adsorption isotherm of Sodium Chloride, Bovine Serum Albumin, Water on Capto Q resin
DOI: 10.1016/j.chroma.2017.06.012
Article source: Figure 6
Adsorbate Sodium Chloride: InChIKey FAPWRFPIFSIZLT-UHFFFAOYSA-M
Adsorbate Bovine Serum Albumin: InChIKey NIST-ISODB-52CDAC8E72899271CC9F
Adsorbate Water: InChIKey XLYOFNOQVPJJNP-UHFFFAOYSA-N
Kind: experiment
Temperature: 298 K
Tabular data in the source: 0
pressure (bar)	Sodium Chloride fraction	Sodium Chloride uptake (mmol/L (wet volume))	Bovine Serum Albumin fraction	Bovine Serum Albumin uptake (mmol/L (wet volume))	Water fraction	Water uptake (mmol/L (wet volume))	total uptake (mmol/L (wet volume))
1.01325			0.0367	70.23			
1.01325			0.0498	39.02			
1.01325			0.0511	118.85			
1.01325			0.0651	138.23			
1.01325			0.1201	166.16			
1.01325			0.6243	173.4			
1.01325			1.5783	183.6			
1.01325			2.7366	190.53			
1.01325			5.2982	184.67			
1.01325			7.8462	188.01			
