Adsorption isotherm of Sodium Chloride, Chicken Egg White Ovalbumin, Water on Capto Q resin
DOI: 10.1016/j.chroma.2017.06.012
Article source: Figure 6
Adsorbate Sodium Chloride: InChIKey FAPWRFPIFSIZLT-UHFFFAOYSA-M
Adsorbate Chicken Egg White Ovalbumin: InChIKey NIST-ISODB-031D601DDF8DC2C648F0
Adsorbate Water: InChIKey XLYOFNOQVPJJNP-UHFFFAOYSA-N
Kind: experiment
Temperature: 298 K
Tabular data in the source: 0
pressure (bar)	Sodium Chloride fraction	Sodium Chloride uptake (mmol/L (wet volume))	Chicken Egg White Ovalbumin fraction	Chicken Egg White Ovalbumin uptake (mmol/L (wet volume))	Water fraction	Water uptake (mmol/L (wet volume))	total uptake (mmol/L (wet volume))
1.01325			0.7637	7.41			
1.01325			2.0168	13.63			
1.01325			3.3996	20.89			
1.01325			4.9338	22.41			
1.01325			6.4464	24.45			
1.01325			7.894	31.19			
1.01325			9.5147	33.23			
1.01325			11.503	25.87			
1.01325			12.54	35.23			
