Adsorption isotherm of Nitrogen on Zn-MOF-74
DOI: 10.1002/cctc.201402927
Article source: Figure S2
Adsorbate Nitrogen: InChIKey IJGRMHOSHXDMSA-UHFFFAOYSA-N
Kind: experiment
Temperature: 77 K
Tabular data in the source: 0
pressure (bar)	uptake (cm3(STP)/g)
0.027027	218.137
0.038851	220.588
0.055743	230.392
0.069257	230.392
0.081081	230.392
0.108108	237.745
0.133446	240.196
0.163851	245.098
0.1875	245.098
0.221284	250
0.261824	252.451
0.293919	257.353
0.322635	259.804
0.341216	262.255
0.375	267.157
0.403716	267.157
0.430743	269.608
0.462838	276.961
0.486486	276.961
0.518581	281.863
0.54223	286.765
0.572635	291.667
0.601351	294.118
0.625	299.02
0.650338	303.922
0.670608	303.922
0.6875	311.275
0.701014	318.627
0.722973	323.529
0.736486	328.431
0.755068	335.784
0.77027	343.137
0.773649	338.235
0.787162	357.843
0.793919	345.588
0.798986	370.098
0.807432	355.392
0.814189	382.353
0.824324	392.157
0.827703	370.098
0.834459	401.961
0.842905	387.255
0.846284	421.569
0.849662	433.824
0.85473	450.98
0.858108	401.961
0.859797	468.137
0.863176	485.294
0.869932	504.902
0.871622	421.569
0.873311	524.51
0.875	551.471
0.880068	583.333
0.881757	607.843
0.885135	649.51
0.888514	448.529
0.896959	463.235
0.905405	482.843
0.910473	502.451
0.915541	522.059
0.923986	551.471
0.925676	664.216
0.927365	571.078
0.932432	598.039
0.9375	620.098
0.942568	632.353
0.949324	649.51
0.952703	661.765
0.967905	666.667
0.983108	669.118
0.993243	669.118
