Adsorption isotherm of Nitrogen on Zn-MOF-74
DOI: 10.1002/cctc.201402927
Article source: Figure S2
Adsorbate Nitrogen: InChIKey IJGRMHOSHXDMSA-UHFFFAOYSA-N
Kind: experiment
Temperature: 77 K
Tabular data in the source: 0
pressure (bar)	uptake (cm3(STP)/g)
0.023649	213.235
0.047297	218.137
0.070946	218.137
0.094595	218.137
0.121622	223.039
0.155405	220.588
0.184122	218.137
0.22973	220.588
0.282095	225.49
0.315878	225.49
0.361486	227.941
0.398649	223.039
0.423986	223.039
0.459459	223.039
0.476351	223.039
0.5	223.039
0.523649	223.039
0.543919	223.039
0.570946	225.49
0.609797	227.941
0.646959	227.941
0.684122	225.49
0.704392	225.49
0.72973	225.49
0.748311	225.49
0.777027	225.49
0.809122	227.941
0.827703	227.941
0.846284	227.941
0.859797	227.941
0.888514	227.941
0.907095	227.941
0.929054	232.843
0.949324	235.294
0.964527	232.843
0.984797	235.294
