Adsorption isotherm of Nitrogen on MOF-74-Ni
DOI: 10.1002/cctc.201402927
Article source: Figure S2
Adsorbate Nitrogen: InChIKey IJGRMHOSHXDMSA-UHFFFAOYSA-N
Kind: experiment
Temperature: 77 K
Tabular data in the source: 0
pressure (bar)	uptake (cm3(STP)/g)
0.015203	107.843
0.028716	120.098
0.052365	125
0.076013	127.451
0.103041	129.902
0.140203	129.902
0.162162	132.353
0.1875	137.255
0.212838	137.255
0.246622	137.255
0.298986	137.255
0.336149	142.157
0.378378	144.608
0.418919	144.608
0.454392	144.608
0.478041	149.51
0.508446	151.961
0.538851	149.51
0.564189	149.51
0.60473	149.51
0.646959	149.51
0.675676	149.51
0.694257	149.51
0.724662	149.51
0.755068	149.51
0.800676	151.961
0.839527	149.51
0.866554	151.961
0.900338	151.961
0.934122	151.961
0.969595	154.412
0.984797	156.863
