Adsorption isotherm of Nitrogen on MOF-74-Co
DOI: 10.1002/cctc.201402927
Article source: Figure S2
Adsorbate Nitrogen: InChIKey IJGRMHOSHXDMSA-UHFFFAOYSA-N
Kind: experiment
Temperature: 77 K
Tabular data in the source: 0
pressure (bar)	uptake (cm3(STP)/g)
0.016892	149.51
0.025338	156.863
0.047297	161.765
0.065878	169.118
0.086149	171.569
0.108108	174.02
0.130068	176.471
0.143581	181.373
0.163851	186.275
0.180743	186.275
0.206081	193.627
0.219595	193.627
0.239865	193.627
0.263514	200.98
0.285473	203.431
0.305743	203.431
0.336149	208.333
0.356419	210.784
0.385135	213.235
0.422297	220.588
0.423986	225.49
0.4375	240.196
0.45777	225.49
0.459459	257.353
0.474662	272.059
0.489865	281.863
0.494932	232.843
0.505068	296.569
0.518581	296.569
0.521959	237.745
0.54223	296.569
0.550676	245.098
0.569257	299.02
0.581081	252.451
0.597973	254.902
0.614865	299.02
0.625	259.804
0.652027	301.471
0.655405	267.157
0.682432	269.608
0.701014	303.922
0.714527	272.059
0.722973	303.922
0.741554	279.412
0.763514	301.471
0.766892	281.863
0.783784	301.471
0.793919	289.216
0.805743	303.922
0.826014	294.118
0.844595	301.471
0.846284	299.02
0.863176	299.02
0.881757	301.471
0.913851	299.02
0.932432	301.471
0.966216	301.471
0.984797	303.922
