Adsorption isotherm of Nitrogen on Mn-MOF-74
DOI: 10.1002/cctc.201402927
Article source: Figure S2
Adsorbate Nitrogen: InChIKey IJGRMHOSHXDMSA-UHFFFAOYSA-N
Kind: experiment
Temperature: 77 K
Tabular data in the source: 0
pressure (bar)	uptake (cm3(STP)/g)
0.015203	174.02
0.032095	188.725
0.057432	196.078
0.079392	200.98
0.094595	205.882
0.126689	210.784
0.162162	215.686
0.189189	215.686
0.226351	223.039
0.251689	225.49
0.275338	227.941
0.298986	230.392
0.315878	232.843
0.349662	235.294
0.373311	237.745
0.407095	242.647
0.440878	245.098
0.467905	250
0.484797	252.451
0.505068	254.902
0.530405	259.804
0.557432	262.255
0.584459	264.706
0.597973	274.51
0.619932	274.51
0.638514	279.412
0.660473	286.765
0.66723	294.118
0.679054	289.216
0.692568	296.569
0.699324	294.118
0.716216	303.922
0.719595	296.569
0.734797	308.824
0.738176	303.922
0.746622	316.176
0.753378	311.275
0.763514	323.529
0.775338	318.627
0.780405	328.431
0.79223	323.529
0.800676	345.588
0.807432	350.49
0.810811	333.333
0.817568	362.745
0.826014	345.588
0.827703	372.549
0.837838	352.941
0.839527	387.255
0.849662	401.961
0.853041	365.196
0.859797	419.118
0.864865	431.373
0.869932	379.902
0.871622	443.627
0.876689	458.333
0.880068	392.157
0.885135	482.843
0.890203	401.961
0.893581	497.549
0.898649	502.451
0.902027	421.569
0.905405	517.157
0.908784	522.059
0.910473	438.725
0.915541	455.882
0.91723	531.863
0.922297	470.588
0.929054	546.569
0.930743	492.647
0.935811	514.706
0.9375	553.922
0.945946	568.627
0.947635	539.216
0.954392	556.373
0.959459	590.686
0.962838	573.529
0.964527	602.941
0.967905	617.647
0.972973	620.098
0.978041	627.451
0.981419	644.608
