Adsorption isotherm of Nitrogen on Cu-MOF-74
DOI: 10.1002/cctc.201402927
Article source: Figure S2
Adsorbate Nitrogen: InChIKey IJGRMHOSHXDMSA-UHFFFAOYSA-N
Kind: experiment
Temperature: 77 K
Tabular data in the source: 0
pressure (bar)	uptake (cm3(STP)/g)
0.015203	254.902
0.027027	264.706
0.040541	269.608
0.054054	276.961
0.086149	284.314
0.108108	289.216
0.140203	296.569
0.165541	296.569
0.195946	303.922
0.226351	308.824
0.258446	308.824
0.277027	313.725
0.309122	318.627
0.327703	321.078
0.363176	325.98
0.403716	330.882
0.439189	335.784
0.483108	340.686
0.52027	345.588
0.555743	350.49
0.586149	357.843
0.619932	360.294
0.650338	367.647
0.670608	372.549
0.695946	379.902
0.722973	392.157
0.736486	392.157
0.753378	399.51
0.780405	411.765
0.795608	428.922
0.810811	443.627
0.815878	424.02
0.829392	463.235
0.837838	446.078
0.844595	477.941
0.851351	490.196
0.856419	465.686
0.861486	512.255
0.873311	495.098
0.883446	566.176
0.888514	517.157
0.890203	588.235
0.89527	615.196
0.896959	541.667
0.898649	644.608
0.903716	676.471
0.907095	700.98
0.908784	730.392
0.912162	767.157
0.915541	803.922
0.91723	620.098
0.918919	838.235
0.922297	916.667
0.923986	875
0.927365	955.882
0.932432	696.078
0.934122	975.49
0.940878	764.706
0.944257	794.118
0.949324	828.431
0.951014	1014.71
0.954392	897.059
0.956081	909.314
0.959459	1019.61
0.964527	928.922
0.969595	1024.51
0.972973	955.882
0.978041	970.588
0.981419	1029.41
0.984797	990.196
0.989865	1031.86
0.991554	1009.8
0.994932	1024.51
