Adsorption isotherm of Nitrogen on 33 wt% HPWs@ Meso-HKUST-1
DOI: 10.1016/s1872-2067(15)60972-x
Article source: Figure 1
Adsorbate Nitrogen: InChIKey IJGRMHOSHXDMSA-UHFFFAOYSA-N
Kind: experiment
Temperature: 77 K
Tabular data in the source: 0
pressure (bar)	uptake (cm3(STP)/g)
0.009008	161.552
0.036791	167.033
0.038068	167.642
0.073937	170.627
0.074758	170.695
0.097951	171.824
0.100808	172.266
0.128267	173.029
0.130071	173.08
0.159334	175.073
0.160691	174.464
0.190187	176.074
0.191798	175.677
0.221486	177.161
0.226401	176.616
0.248429	177.37
0.252401	178.075
0.281896	178.148
0.28369	178.891
0.308443	178.695
0.314047	179.724
0.340959	179.426
0.343461	180.518
0.374315	181.296
0.377051	180.344
0.402787	181.094
0.403618	181.044
0.4359	183.472
0.436731	183.678
0.463298	182.297
0.46341	182.304
0.49022	185.469
0.492591	182.739
0.520831	185.888
0.522138	185.822
0.545483	186.214
0.558939	184.046
0.578008	186.259
0.583602	184.387
0.607545	186.616
0.62016	184.869
0.641489	186.864
0.648754	185.288
0.673771	187.158
0.678644	185.708
0.702476	187.375
0.707715	185.846
0.728922	187.483
0.738558	186.25
0.75858	187.497
0.770364	186.529
0.788116	187.916
0.80145	186.901
0.814916	188.024
0.828605	187.009
0.842193	188.147
0.849093	187.367
0.860655	187.475
0.877089	187.928
0.877211	187.911
0.893879	187.723
0.908652	188.751
0.916393	188.018
0.928785	188.345
0.948078	188.936
0.95284	189.123
0.966306	189.434
0.971545	189.824
0.983339	190.166
0.991799	190.649
0.993461	190.805
1.00204	191.21
