Adsorption isotherm of Nitrogen on 8 wt% HPWs@Meso-HKUST-1
DOI: 10.1016/s1872-2067(15)60972-x
Article source: Figure 1
Adsorbate Nitrogen: InChIKey IJGRMHOSHXDMSA-UHFFFAOYSA-N
Kind: experiment
Temperature: 77 K
Tabular data in the source: 0
pressure (bar)	uptake (cm3(STP)/g)
0.008602	188.286
0.034795	193.568
0.040125	194.847
0.065861	197.148
0.066986	196.725
0.097819	198.858
0.103524	199.773
0.128875	200.588
0.130456	201.247
0.161289	202.199
0.16287	202.731
0.186124	203.211
0.190329	203.998
0.219055	204.732
0.219429	204.734
0.252593	205.884
0.256423	206.69
0.282373	206.954
0.286203	207.81
0.312314	207.927
0.31584	208.979
0.342772	209.145
0.346896	210.227
0.372177	210.245
0.377284	211.524
0.400264	211.58
0.401328	211.479
0.436457	212.508
0.437187	212.702
0.461353	213.475
0.467858	220.954
0.488285	223.63
0.495824	214.791
0.521266	224.186
0.527589	215.793
0.551502	216.623
0.555575	224.469
0.581575	224.765
0.585902	218.108
0.606521	224.95
0.626047	219.43
0.640911	225.194
0.651408	219.94
0.672119	225.252
0.675868	220.765
0.6974	225.545
0.703317	221.432
0.727757	225.735
0.741567	222.361
0.76396	225.843
0.77086	222.89
0.797772	223.639
0.804217	226.106
0.814927	226.246
0.826234	224.23
0.83505	224.339
0.846013	226.338
0.848273	224.791
0.864221	224.853
0.874587	225.58
0.875418	225.305
0.890495	225.564
0.905349	225.922
0.90542	225.917
0.92073	226.319
0.930407	226.88
0.954563	227.311
0.96199	227.104
0.976692	227.251
0.980066	227.802
0.986895	227.9
0.992519	228.204
1.00393	229.138
