Adsorption isotherm of Nitrogen on Meso-HKUST-1
DOI: 10.1016/s1872-2067(15)60972-x
Article source: Figure 1
Adsorbate Nitrogen: InChIKey IJGRMHOSHXDMSA-UHFFFAOYSA-N
Kind: experiment
Temperature: 77 K
Tabular data in the source: 0
pressure (bar)	uptake (cm3(STP)/g)
0.009251	198.496
0.034785	203.739
0.040459	205.028
0.064666	207.271
0.067695	207.06
0.097667	208.955
0.103807	209.91
0.128389	211.256
0.130375	211.409
0.161107	212.25
0.162242	212.957
0.190126	214.183
0.219055	215.424
0.220027	214.863
0.252968	215.993
0.256869	216.898
0.282403	217.031
0.285615	218.059
0.312091	218.195
0.316063	219.236
0.342245	219.284
0.346694	220.375
0.371376	220.357
0.377912	221.705
0.400497	223.248
0.401916	221.438
0.436265	222.69
0.437461	223.063
0.461394	223.579
0.468385	231.217
0.488994	233.782
0.495317	224.857
0.521611	234.376
0.527174	225.884
0.552414	226.9
0.555312	234.705
0.581423	234.92
0.58576	228.112
0.606937	235.057
0.625986	229.527
0.641904	235.39
0.65075	230.234
0.672403	235.523
0.676365	230.874
0.697643	235.658
0.703398	231.456
0.728273	235.93
0.741598	232.582
0.764386	236.09
0.771276	233.201
0.79834	233.859
0.803973	236.26
0.814856	236.367
0.827906	234.389
0.834513	234.537
0.846591	236.455
0.848992	234.87
0.863552	235.126
0.874952	236.622
0.875337	236.631
0.891234	235.754
0.905197	236.669
0.907973	235.99
0.922898	236.107
0.930934	237.12
0.955089	237.326
0.963125	237.159
0.974898	237.434
0.981728	237.974
0.991192	238.063
1.00499	239.125
