Adsorption isotherm of Nitrogen on 25 wt% HPWs@Meso-HKUST-1
DOI: 10.1016/s1872-2067(15)60972-x
Article source: Figure 1
Adsorbate Nitrogen: InChIKey IJGRMHOSHXDMSA-UHFFFAOYSA-N
Kind: experiment
Temperature: 77 K
Tabular data in the source: 0
pressure (bar)	uptake (cm3(STP)/g)
0.00916	170.038
0.03595	176.198
0.040145	177.251
0.063409	179.879
0.071363	179.839
0.097708	181.935
0.099886	182.664
0.125775	184.346
0.130648	184.061
0.160975	185.684
0.163518	186.472
0.186337	187.564
0.19121	187.081
0.221709	188.448
0.221993	188.473
0.240627	190.184
0.2531	189.924
0.281846	191.002
0.28752	192.044
0.308413	191.994
0.314847	193.134
0.343026	193.478
0.343482	193.467
0.371093	194.539
0.377476	195.838
0.402686	195.799
0.40533	197.498
0.432556	200.424
0.434076	197.076
0.463947	198.365
0.468213	204.424
0.490018	206.502
0.494537	199.628
0.521581	206.923
0.526464	200.659
0.548624	207.173
0.553508	201.815
0.577927	207.516
0.585912	202.72
0.612358	207.719
0.61331	203.782
0.642492	208.063
0.646778	204.594
0.675969	205.636
0.677044	205.281
0.704219	208.474
0.704665	208.471
0.734687	206.424
0.734839	206.42
0.764406	208.924
0.771306	207.201
0.819517	209.295
0.825353	209.227
0.833925	208.061
0.847513	209.324
0.8481	209.388
0.863471	208.31
0.876461	208.794
0.878245	209.701
0.892653	208.857
0.902421	209.7
0.911479	209.153
0.922554	209.638
0.933994	210.231
0.949598	210.044
0.959244	210.157
0.960318	210.106
0.972355	210.418
0.977948	210.949
0.997849	211.418
1.00452	212.043
