Adsorption isotherm of Nitrogen on 30 wt% HPWs@Meso-HKUST-1
DOI: 10.1016/s1872-2067(15)60972-x
Article source: Figure 1
Adsorbate Nitrogen: InChIKey IJGRMHOSHXDMSA-UHFFFAOYSA-N
Kind: experiment
Temperature: 77 K
Tabular data in the source: 0
pressure (bar)	uptake (cm3(STP)/g)
0.008927	162.124
0.03368	168.637
0.040388	169.269
0.064118	171.796
0.067999	171.92
0.098164	174.273
0.100616	174.744
0.125582	176.267
0.131439	176.007
0.161036	177.741
0.163214	178.286
0.18656	179.636
0.1912	179.103
0.221446	180.49
0.223057	180.61
0.240546	182.026
0.252938	181.852
0.282626	182.905
0.2883	183.995
0.309193	184.007
0.315719	185.122
0.343026	186.267
0.343097	186.266
0.370191	186.542
0.377993	187.859
0.402372	187.785
0.405837	189.455
0.432759	189.29
0.433945	188.987
0.464322	190.235
0.467747	196.451
0.489663	198.437
0.493503	191.327
0.521327	198.85
0.525978	192.538
0.548199	199.105
0.553143	193.678
0.577907	199.478
0.585709	194.602
0.611831	199.734
0.61333	195.624
0.643049	199.91
0.646798	196.41
0.675767	197.163
0.676061	197.157
0.703976	197.847
0.704574	197.825
0.735042	200.715
0.735792	200.725
0.764609	200.951
0.771965	199.162
0.796131	201.049
0.799576	199.496
0.819091	201.285
0.824937	199.987
0.833793	200.007
0.847006	200.046
0.848354	201.285
0.861708	200.419
0.876269	201.59
0.877171	201.599
0.894426	200.911
0.903282	201.776
0.911682	201.146
0.923091	201.422
0.9345	201.992
0.95131	201.775
0.958514	202.267
0.970369	202.05
0.974422	202.09
0.979377	202.856
0.996937	203.25
1.00459	203.997
