Adsorption isotherm of Nitrogen on 18 wt% HPWs@Meso-HKUST-1
DOI: 10.1016/s1872-2067(15)60972-x
Article source: Figure 1
Adsorbate Nitrogen: InChIKey IJGRMHOSHXDMSA-UHFFFAOYSA-N
Kind: experiment
Temperature: 77 K
Tabular data in the source: 0
pressure (bar)	uptake (cm3(STP)/g)
0.008106	184.482
0.0382	189.605
0.042151	188.917
0.069408	190.791
0.07265	192.01
0.100514	193.341
0.100717	193.352
0.129291	193.887
0.130608	194.812
0.157054	195.225
0.161715	196.11
0.19272	196.542
0.195253	197.487
0.218051	197.624
0.224739	198.687
0.251286	198.824
0.254123	199.533
0.277631	199.768
0.282798	200.703
0.307927	200.84
0.311676	201.962
0.341769	202.178
0.347646	203.713
0.372775	203.309
0.377942	205.582
0.400538	204.468
0.405503	207.811
0.436103	205.623
0.437217	210.903
0.460623	206.529
0.468831	214.854
0.488589	217.161
0.496695	208.03
0.516048	217.584
0.521317	208.935
0.548371	217.933
0.556781	210.37
0.577046	218.183
0.583328	211.256
0.614637	218.409
0.617475	212.576
0.641995	218.487
0.643008	213.344
0.676142	214.447
0.683032	218.791
0.69894	218.988
0.705121	215.24
0.726602	219.194
0.7341	215.847
0.761761	219.36
0.769057	216.801
0.790639	219.517
0.798036	217.321
0.81364	219.664
0.827825	217.925
0.835222	218.206
0.842619	219.989
0.847482	218.44
0.860553	218.783
0.875549	219.095
0.876259	220.145
0.890849	219.329
0.905643	219.657
0.908075	220.45
0.920842	220.297
0.950125	220.789
0.960561	220.715
0.975861	221.061
0.980421	221.074
0.989743	221.433
0.99491	221.433
1.0021	222.14
