Adsorption isotherm of Carbon Dioxide on Zeolite Na-LSX
DOI: 10.1016/S0167-2991(02)80202-6
Adsorbate Carbon Dioxide: InChIKey CURLTUGMZLYLDI-UHFFFAOYSA-N
Temperature: 293 K
Tabular data in the source: 0
pressure (bar)	uptake (mmol/g)
0.130523	4.31755
0.340688	4.86275
0.850392	5.21975
1.36319	5.43005
1.95121	5.57758
2.53967	5.70415
2.8339	5.76743
6.37396	6.08675
9.4751	6.19587
12.4289	6.28383
15.5309	6.35104
18.4865	6.35517
21.589	6.40142
24.5446	6.40555
27.6479	6.40989
