Adsorption isotherm of Argon on Zeolite Na-LSX
DOI: 10.1016/S0167-2991(02)80202-6
Adsorbate Argon: InChIKey XKRFYHLGVUSROY-UHFFFAOYSA-N
Temperature: 333 K
Tabular data in the source: 0
pressure (bar)	uptake (mmol/g)
1.37755	0.0932303
4.28571	0.261243
6.42857	0.364087
9.4898	0.522912
12.551	0.672477
15.6122	0.803524
18.5204	0.925241
21.7347	1.03784
24.6429	1.1503
27.551	1.24424
30.6122	1.33825
33.6735	1.41374
36.7347	1.50775
39.6429	1.58317
42.7041	1.6494
45.7653	1.70637
48.6735	1.77253
52.0408	1.81113
