Adsorption isotherm of Nitrogen on Zeolite Na-LSX
DOI: 10.1016/S0167-2991(02)80202-6
Adsorbate Nitrogen: InChIKey IJGRMHOSHXDMSA-UHFFFAOYSA-N
Temperature: 333 K
Tabular data in the source: 0
pressure (bar)	uptake (mmol/g)
0.574577	0.0309884
0.995736	0.113244
1.56351	0.185286
2.12619	0.288117
3.40157	0.463041
4.11086	0.555659
7.24639	0.874913
10.5336	1.15316
15.5548	1.4628
20.7277	1.73143
25.7727	1.89738
30.8194	2.05307
36.0178	2.16775
41.2196	2.2619
46.2798	2.33548
51.3418	2.3988
