Adsorption isotherm of Nitrogen on Zeolite Na-LSX
DOI: 10.1016/S0167-2991(02)80202-6
Adsorbate Nitrogen: InChIKey IJGRMHOSHXDMSA-UHFFFAOYSA-N
Temperature: 293 K
Tabular data in the source: 0
pressure (bar)	uptake (mmol/g)
0.864259	0.380209
1.29919	0.503599
1.73454	0.616726
2.0232	0.729777
2.60568	0.832716
2.8952	0.925239
6.53809	1.51215
9.45566	1.90368
12.526	2.15159
15.4513	2.35837
18.6726	2.50372
21.6005	2.64892
24.5309	2.73253
27.7544	2.82656
30.6853	2.89991
33.7638	2.95281
36.548	3.02609
39.774	3.05854
42.7062	3.1011
45.6388	3.13339
48.571	3.17595
51.6512	3.1878
