Adsorption isotherm of Carbon Dioxide on Zeolite Na-LSX
DOI: 10.1016/S0167-2991(02)80202-6
Adsorbate Carbon Dioxide: InChIKey CURLTUGMZLYLDI-UHFFFAOYSA-N
Temperature: 313 K
Tabular data in the source: 0
pressure (bar)	uptake (mmol/g)
0.351275	3.91016
2.0014	4.98338
6.40086	5.53301
11.183	5.74657
16.4847	5.87642
21.8627	5.94325
