Adsorption isotherm of Argon on Zeolite Na-LSX
DOI: 10.1016/S0167-2991(02)80202-6
Adsorbate Argon: InChIKey XKRFYHLGVUSROY-UHFFFAOYSA-N
Temperature: 313 K
Tabular data in the source: 0
pressure (bar)	uptake (mmol/g)
3.30207	0.261382
4.50874	0.31747
6.61263	0.466865
8.71652	0.61626
10.8218	0.756339
16.3967	1.05534
21.9814	1.28913
27.2609	1.53218
32.5518	1.70071
38.1493	1.85064
43.4486	1.96327
48.9027	2.05728
54.3568	2.1513
