Adsorption isotherm of Argon on Zeolite Na-LSX
DOI: 10.1016/S0167-2991(02)80202-6
Adsorbate Argon: InChIKey XKRFYHLGVUSROY-UHFFFAOYSA-N
Temperature: 313 K
Tabular data in the source: 0
pressure (bar)	uptake (mmol/g)
0.918367	0.0837585
2.14286	0.176918
3.06122	0.269936
6.27551	0.493646
9.4898	0.708097
12.551	0.88544
15.6122	1.04426
18.6735	1.21235
21.7347	1.35265
24.7959	1.4837
27.551	1.58683
30.6122	1.69936
33.6735	1.80263
36.7347	1.88738
39.6429	1.97206
42.7041	2.02903
46.2245	2.10473
48.8265	2.16149
51.8878	2.20921
