Adsorption isotherm of Carbon Dioxide on Zeolite Na-LSX
DOI: 10.1016/S0167-2991(02)80202-6
Adsorbate Carbon Dioxide: InChIKey CURLTUGMZLYLDI-UHFFFAOYSA-N
Temperature: 333 K
Tabular data in the source: 0
pressure (bar)	uptake (mmol/g)
0.116649	2.48056
0.585679	3.595
2.24023	4.56313
6.56421	5.15475
11.1235	5.4102
16.2777	5.53993
21.5811	5.62773
