Adsorption isotherm of Carbon Dioxide on Zeolite Na-LSX
DOI: 10.1016/S0167-2991(02)80202-6
Adsorbate Carbon Dioxide: InChIKey CURLTUGMZLYLDI-UHFFFAOYSA-N
Temperature: 333 K
Tabular data in the source: 0
pressure (bar)	uptake (mmol/g)
0.234499	2.89254
0.369005	3.52147
0.655714	3.94104
1.24063	4.23527
1.60566	4.44536
2.11846	4.65565
2.63303	4.78212
3.00071	4.86647
6.31777	5.24835
9.63881	5.44161
12.5917	5.57149
15.4717	5.65934
18.5002	5.70549
21.4549	5.75153
24.5574	5.79778
27.5864	5.82298
