Adsorption isotherm of Nitrogen on Zeolite Na-LSX
DOI: 10.1016/S0167-2991(02)80202-6
Adsorbate Nitrogen: InChIKey IJGRMHOSHXDMSA-UHFFFAOYSA-N
Temperature: 313 K
Tabular data in the source: 0
pressure (bar)	uptake (mmol/g)
1.54991	0.267392
2.10239	0.431804
3.36927	0.658044
4.3633	0.781551
7.33861	1.19313
10.3326	1.4918
15.6351	1.85286
20.953	2.12154
25.9928	2.31828
31.1844	2.47401
36.3862	2.56817
41.4465	2.64175
46.7949	2.72569
51.8569	2.789
