Adsorption isotherm of Argon on Zeolite Na-LSX
DOI: 10.1016/S0167-2991(02)80202-6
Adsorbate Argon: InChIKey XKRFYHLGVUSROY-UHFFFAOYSA-N
Temperature: 333 K
Tabular data in the source: 0
pressure (bar)	uptake (mmol/g)
1.5048	0.0934014
2.26003	0.121469
3.31339	0.18685
4.36816	0.242914
6.62961	0.355067
8.58727	0.467172
10.8487	0.579324
16.1282	0.82238
21.7158	1.03753
27.4624	1.20613
31.6956	1.33722
37.7459	1.50586
43.1958	1.62783
48.6484	1.73116
53.8001	1.81581
