Adsorption isotherm of Nitrogen on Zeolite Na-LSX
DOI: 10.1016/S0167-2991(02)80202-6
Adsorbate Nitrogen: InChIKey IJGRMHOSHXDMSA-UHFFFAOYSA-N
Temperature: 293 K
Tabular data in the source: 0
pressure (bar)	uptake (mmol/g)
1.78536	0.595919
3.18355	0.904315
4.30551	1.13051
7.41383	1.61397
10.546	1.95375
15.8451	2.33533
21.1646	2.59375
26.3511	2.78028
31.5461	2.91548
36.7479	3.00964
42.0946	3.10384
47.1583	3.1569
52.5135	3.19978
