Adsorption isotherm of Argon on Zeolite Na-LSX
DOI: 10.1016/S0167-2991(02)80202-6
Adsorbate Argon: InChIKey XKRFYHLGVUSROY-UHFFFAOYSA-N
Temperature: 293 K
Tabular data in the source: 0
pressure (bar)	uptake (mmol/g)
0.597674	0.0653102
1.19535	0.13062
1.94633	0.186638
2.24163	0.242584
3.43981	0.354571
4.48751	0.457219
6.43243	0.653173
8.83445	0.839881
10.7822	1.0172
16.3457	1.39074
22.5239	1.71778
27.6529	1.9515
33.0943	2.12936
38.537	2.29791
43.9869	2.41987
49.2848	2.54181
54.7431	2.60788
