Adsorption isotherm of Nitrogen on Zeolite Na-LSX
DOI: 10.1016/S0167-2991(02)80202-6
Adsorbate Nitrogen: InChIKey IJGRMHOSHXDMSA-UHFFFAOYSA-N
Temperature: 313 K
Tabular data in the source: 0
pressure (bar)	uptake (mmol/g)
0.872433	0.185198
1.30822	0.288061
1.59774	0.380585
2.03396	0.473185
2.6173	0.555595
2.90682	0.648119
6.55314	1.15292
9.62086	1.46242
12.3973	1.72044
15.4698	1.91703
18.5439	2.07257
21.4727	2.19724
24.6953	2.31179
27.772	2.40575
30.5558	2.48929
33.6338	2.55245
36.5652	2.61554
39.6437	2.66844
42.7221	2.72134
45.6543	2.7639
48.7337	2.79627
51.6654	2.8491
