Adsorption isotherm of Carbon Dioxide on Zeolite Na-LSX
DOI: 10.1016/S0167-2991(02)80202-6
Adsorbate Carbon Dioxide: InChIKey CURLTUGMZLYLDI-UHFFFAOYSA-N
Temperature: 313 K
Tabular data in the source: 0
pressure (bar)	uptake (mmol/g)
0.284939	4.00339
0.57209	4.402
0.936228	4.654
1.30037	4.90601
1.74105	5.03237
2.18173	5.15874
2.54941	5.24308
5.42357	5.60339
8.44906	5.79624
11.4024	5.90515
14.431	5.9513
17.6065	6.03957
20.5616	6.06466
23.5168	6.08974
26.6197	6.11504
29.5748	6.14012
