Adsorption isotherm of Argon on Zeolite Na-LSX
DOI: 10.1016/S0167-2991(02)80202-6
Adsorbate Argon: InChIKey XKRFYHLGVUSROY-UHFFFAOYSA-N
Temperature: 293 K
Tabular data in the source: 0
pressure (bar)	uptake (mmol/g)
0.306122	0.0927343
1.53061	0.23219
2.90816	0.32542
6.42857	0.660384
9.33673	0.91173
12.398	1.14463
15.6122	1.34982
18.6735	1.55494
21.7347	1.71377
24.6429	1.84474
27.8571	1.97586
30.7653	2.09758
33.8265	2.2101
36.7347	2.28553
39.7959	2.37028
42.8571	2.44577
45.6122	2.51186
48.9796	2.58749
51.7347	2.63506
