Adsorption isotherm of Nitrogen on Zeolite Na-LSX
DOI: 10.1016/S0167-2991(02)80202-6
Adsorbate Nitrogen: InChIKey IJGRMHOSHXDMSA-UHFFFAOYSA-N
Temperature: 333 K
Tabular data in the source: 0
pressure (bar)	uptake (mmol/g)
3.50006	0.494465
6.71404	0.814296
9.49008	1.08258
12.2687	1.28929
15.635	1.47577
18.7096	1.62104
21.6383	1.74571
24.4212	1.84978
27.6447	1.94381
30.4285	2.02735
33.799	2.11119
36.7308	2.16401
39.8089	2.22717
42.7402	2.29026
45.6724	2.33282
48.6046	2.37538
51.5372	2.40768
