Adsorption isotherm of Carbon Dioxide on Carbon
DOI: 10.1016/j.coal.2011.05.001
Adsorbate Carbon Dioxide: InChIKey CURLTUGMZLYLDI-UHFFFAOYSA-N
Temperature: 298 K
Tabular data in the source: 0
pressure (bar)	uptake (mmol/g)
1.42481	0.564733
5.71524	0.882225
10.2631	1.05813
15.5832	1.14823
20.9034	1.21259
30.0849	1.31127
41.0684	1.36704
50.2499	1.34988
