Adsorption isotherm of Carbon Dioxide on Carbon
DOI: 10.1016/j.coal.2011.05.001
Adsorbate Carbon Dioxide: InChIKey CURLTUGMZLYLDI-UHFFFAOYSA-N
Temperature: 298 K
Tabular data in the source: 0
pressure (bar)	uptake (mmol/g)
1.52021	0.740876
3.54838	1.00848
5.40754	1.1944
9.29486	1.37186
13.0132	1.48735
18.1681	1.59721
24.7596	1.71552
32.2808	1.80848
40.0554	1.88172
49.3512	1.96059
56.1118	2.00003
