Adsorption isotherm of Carbon Dioxide on Carbon
DOI: 10.1016/j.coal.2011.05.001
Adsorbate Carbon Dioxide: InChIKey CURLTUGMZLYLDI-UHFFFAOYSA-N
Temperature: 298 K
Tabular data in the source: 0
pressure (bar)	uptake (mmol/g)
0.675142	0.670453
5.06951	1.05073
10.0554	1.32679
20.0273	1.56341
30.0836	1.76059
39.8019	1.93524
45.2104	2.00285
50.1963	1.97468
