Adsorption isotherm of Methane on Carbon
DOI: 10.1016/j.coal.2011.05.001
Adsorbate Methane: InChIKey VNWKTOKETHGBQD-UHFFFAOYSA-N
Temperature: 298 K
Tabular data in the source: 0
pressure (bar)	uptake (mmol/g)
1.18218	0.160609
5.23852	0.354975
10.0554	0.507088
21.9709	0.659201
30.8442	0.790187
38.8723	0.845116
49.6892	0.883144
