Adsorption isotherm of Methane on Carbon
DOI: 10.1016/j.coal.2011.05.001
Adsorbate Methane: InChIKey VNWKTOKETHGBQD-UHFFFAOYSA-N
Temperature: 298 K
Tabular data in the source: 0
pressure (bar)	uptake (mmol/g)
1.01317	0.257792
4.73148	0.528215
9.88641	0.760609
19.7737	0.984553
30.1681	1.14934
40.0554	1.30568
45.0413	1.39864
50.1963	1.44934
