Adsorption isotherm of Carbon Dioxide on Carbon
DOI: 10.1016/j.coal.2011.05.001
Adsorbate Carbon Dioxide: InChIKey CURLTUGMZLYLDI-UHFFFAOYSA-N
Temperature: 298 K
Tabular data in the source: 0
pressure (bar)	uptake (mmol/g)
1.16739	0.264403
5.2862	0.663413
10.5205	0.843611
22.3621	1.1182
31.2862	1.26407
39.438	1.37133
50.0783	1.46143
