Adsorption isotherm of Methane on Carbon
DOI: 10.1016/j.coal.2011.05.001
Adsorbate Methane: InChIKey VNWKTOKETHGBQD-UHFFFAOYSA-N
Temperature: 298 K
Tabular data in the source: 0
pressure (bar)	uptake (mmol/g)
0.675142	0.0380739
4.985	0.190187
10.0554	0.300046
19.9427	0.426806
30.2526	0.473285
40.1399	0.515539
45.0413	0.53244
49.6892	0.540891
