Adsorption isotherm of Methane on Carbon
DOI: 10.1016/j.coal.2011.05.001
Adsorbate Methane: InChIKey VNWKTOKETHGBQD-UHFFFAOYSA-N
Temperature: 298 K
Tabular data in the source: 0
pressure (bar)	uptake (mmol/g)
0.928663	0.211313
5.15402	0.574694
9.97092	0.709905
20.0273	0.946525
29.9991	1.03103
39.9709	1.09019
44.8723	1.10709
49.6892	1.14512
