Adsorption isotherm of Methane on Carbon
DOI: 10.1016/j.coal.2011.05.001
Adsorbate Methane: InChIKey VNWKTOKETHGBQD-UHFFFAOYSA-N
Temperature: 298 K
Tabular data in the source: 0
pressure (bar)	uptake (mmol/g)
1.09768	0.223989
5.06951	0.764834
9.88641	1.03948
20.1118	1.28878
29.7456	1.40709
40.1399	1.47047
45.2104	1.50005
50.1118	1.50005
