Adsorption isotherm of Carbon Dioxide on Carbon
DOI: 10.1016/j.coal.2011.05.001
Adsorbate Carbon Dioxide: InChIKey CURLTUGMZLYLDI-UHFFFAOYSA-N
Temperature: 298 K
Tabular data in the source: 0
pressure (bar)	uptake (mmol/g)
0.844156	0.633894
4.985	1.01418
9.97092	1.30995
20.0273	1.55502
30.3371	1.77474
39.9709	1.90995
45.0413	1.96065
50.1963	1.9522
