Adsorption isotherm of Carbon Dioxide on Carbon
DOI: 10.1016/j.coal.2011.05.001
Adsorbate Carbon Dioxide: InChIKey CURLTUGMZLYLDI-UHFFFAOYSA-N
Temperature: 298 K
Tabular data in the source: 0
pressure (bar)	uptake (mmol/g)
7.4832	0.365047
11.9765	0.479459
16.0114	0.579569
19.6794	0.702561
23.7142	0.834134
27.8408	1.00575
30.7752	1.12016
34.5349	1.24316
37.5611	1.37187
40.6789	1.4777
44.622	1.60641
48.9319	1.7151
53.0585	1.81807
58.1937	1.90388
61.5867	1.96395
