Adsorption isotherm of Carbon Dioxide on Carbon
DOI: 10.1016/j.coal.2011.05.001
Adsorbate Carbon Dioxide: InChIKey CURLTUGMZLYLDI-UHFFFAOYSA-N
Temperature: 298 K
Tabular data in the source: 0
pressure (bar)	uptake (mmol/g)
1.08158	0.375954
5.2862	0.607637
10.1773	0.749221
19.9595	0.809287
30.2565	0.830739
40.2103	0.856482
45.3588	0.865063
49.9067	0.976614
