Adsorption isotherm of Carbon Dioxide on Carbon
DOI: 10.1016/j.coal.2011.05.001
Adsorbate Carbon Dioxide: InChIKey CURLTUGMZLYLDI-UHFFFAOYSA-N
Temperature: 298 K
Tabular data in the source: 0
pressure (bar)	uptake (mmol/g)
1.01317	0.363411
2.28078	0.656368
3.37937	0.87327
4.73148	1.07327
6.92866	1.25355
9.21035	1.39721
12.1681	1.52116
16.1399	1.63665
21.4639	1.74369
27.3794	1.81693
34.647	1.88172
39.9709	1.90707
55.6047	1.97186
