Adsorption isotherm of Carbon Dioxide on Carbon
DOI: 10.1016/j.coal.2011.05.001
Adsorbate Carbon Dioxide: InChIKey CURLTUGMZLYLDI-UHFFFAOYSA-N
Temperature: 298 K
Tabular data in the source: 0
pressure (bar)	uptake (mmol/g)
9.86742	0.685399
29.308	1.05152
39.5785	1.33182
48.9319	1.56637
54.5257	1.74085
58.6522	1.92676
60.2111	1.99541
61.8618	1.96395
