Adsorption isotherm of Carbon Dioxide on Carbon
DOI: 10.1016/j.coal.2011.05.001
Adsorbate Carbon Dioxide: InChIKey CURLTUGMZLYLDI-UHFFFAOYSA-N
Temperature: 298 K
Tabular data in the source: 0
pressure (bar)	uptake (mmol/g)
1.09768	0.588763
1.60472	0.760594
2.44979	0.881721
3.88641	1.03102
5.83007	1.15214
7.68923	1.25355
10.3935	1.37186
14.0273	1.4789
19.1822	1.60003
23.9991	1.69299
30.0836	1.78031
36.1681	1.8451
42.5061	1.90707
47.9991	1.96341
56.1118	2.03665
