Adsorption isotherm of Carbon Dioxide on Carbon
DOI: 10.1016/j.coal.2011.05.001
Adsorbate Carbon Dioxide: InChIKey CURLTUGMZLYLDI-UHFFFAOYSA-N
Temperature: 298 K
Tabular data in the source: 0
pressure (bar)	uptake (mmol/g)
1.08158	0.324469
5.37201	0.719188
10.0057	0.929419
20.2169	1.06242
30.1707	1.16539
40.1245	1.25549
45.1014	1.26836
50.0783	1.24262
