Adsorption isotherm of Carbon Dioxide on Carbon
DOI: 10.1016/j.coal.2011.05.001
Adsorbate Carbon Dioxide: InChIKey CURLTUGMZLYLDI-UHFFFAOYSA-N
Temperature: 298 K
Tabular data in the source: 0
pressure (bar)	uptake (mmol/g)
7.5749	0.636775
11.4263	0.705422
15.6446	0.779789
20.1379	0.874178
24.6312	0.98859
29.3997	1.09728
34.2598	1.21741
40.037	1.35757
45.3556	1.5206
51.4996	1.6865
54.8008	1.78089
59.4775	1.9096
63.1456	2.01829
