Adsorption isotherm of Carbon Dioxide on Carbon
DOI: 10.1016/j.coal.2011.05.001
Adsorbate Carbon Dioxide: InChIKey CURLTUGMZLYLDI-UHFFFAOYSA-N
Temperature: 298 K
Tabular data in the source: 0
pressure (bar)	uptake (mmol/g)
1.08158	0.483215
5.11458	0.912258
10.2631	1.13965
22.2763	1.49147
30.943	1.7017
38.9232	1.86473
49.9925	2.01061
