Adsorption isotherm of Methane on Carbon
DOI: 10.1016/j.coal.2011.05.001
Adsorbate Methane: InChIKey VNWKTOKETHGBQD-UHFFFAOYSA-N
Temperature: 298 K
Tabular data in the source: 0
pressure (bar)	uptake (mmol/g)
0.675142	0.0930035
4.985	0.262018
10.0554	0.40568
19.5202	0.540891
29.492	0.625398
39.8019	0.688778
44.7878	0.70568
49.6047	0.709905
