Adsorption isotherm of Methane on Carbon
DOI: 10.1016/j.coal.2011.05.001
Adsorbate Methane: InChIKey VNWKTOKETHGBQD-UHFFFAOYSA-N
Temperature: 298 K
Tabular data in the source: 0
pressure (bar)	uptake (mmol/g)
0.928663	0.177511
4.985	0.333849
10.5625	0.473285
19.6892	0.578919
29.8301	0.616947
40.1399	0.654975
45.0413	0.663426
49.8582	0.663426
