Adsorption isotherm of Methane on Carbon
DOI: 10.1016/j.coal.2011.05.001
Adsorbate Methane: InChIKey VNWKTOKETHGBQD-UHFFFAOYSA-N
Temperature: 298 K
Tabular data in the source: 0
pressure (bar)	uptake (mmol/g)
1.3512	0.566243
5.40754	0.88737
10.3089	1.05638
15.2104	1.15357
20.2808	1.22962
30.0836	1.31836
41.0695	1.37751
49.9427	1.39019
