Adsorption isotherm of Carbon Dioxide on Carbon
DOI: 10.1016/j.coal.2011.05.001
Adsorbate Carbon Dioxide: InChIKey CURLTUGMZLYLDI-UHFFFAOYSA-N
Temperature: 298 K
Tabular data in the source: 0
pressure (bar)	uptake (mmol/g)
0.824154	0.508957
5.02877	0.822159
9.74825	0.989485
19.9595	1.09246
29.7416	1.10962
39.7812	1.13965
44.7581	1.14394
49.9067	1.1182
