Adsorption isotherm of Carbon Dioxide on Carbon
DOI: 10.1016/j.coal.2011.05.001
Adsorbate Carbon Dioxide: InChIKey CURLTUGMZLYLDI-UHFFFAOYSA-N
Temperature: 298 K
Tabular data in the source: 0
pressure (bar)	uptake (mmol/g)
1.2532	0.474634
5.02877	0.740641
10.0057	0.882225
20.0453	0.989485
30.0849	1.02381
40.0387	1.03239
45.0156	1.04097
50.2499	1.03668
