Adsorption isotherm of Methane on Carbon
DOI: 10.1016/j.coal.2011.05.001
Adsorbate Methane: InChIKey VNWKTOKETHGBQD-UHFFFAOYSA-N
Temperature: 298 K
Tabular data in the source: 0
pressure (bar)	uptake (mmol/g)
0.759649	0.109905
5.06951	0.262018
10.0554	0.363426
19.9427	0.46906
29.9146	0.494412
39.8864	0.523989
44.8723	0.53244
49.8582	0.53244
