Adsorption isotherm of Methane on Carbon
DOI: 10.1016/j.coal.2011.05.001
Adsorbate Methane: InChIKey VNWKTOKETHGBQD-UHFFFAOYSA-N
Temperature: 298 K
Tabular data in the source: 0
pressure (bar)	uptake (mmol/g)
0.928663	0.0592007
4.90049	0.160609
10.0554	0.219764
19.9427	0.283144
29.9146	0.329623
39.9709	0.354975
45.0413	0.367651
49.7737	0.367651
