Adsorption isotherm of Methane on Carbon
DOI: 10.1016/j.coal.2011.05.001
Adsorbate Methane: InChIKey VNWKTOKETHGBQD-UHFFFAOYSA-N
Temperature: 298 K
Tabular data in the source: 0
pressure (bar)	uptake (mmol/g)
1.01317	0.152158
5.15402	0.342299
10.0554	0.460609
22.3089	0.65075
31.2667	0.680327
38.9568	0.709905
49.9427	0.709905
