Adsorption isotherm of Carbon Dioxide on Carbon
DOI: 10.1016/j.coal.2011.05.001
Adsorbate Carbon Dioxide: InChIKey CURLTUGMZLYLDI-UHFFFAOYSA-N
Temperature: 298 K
Tabular data in the source: 0
pressure (bar)	uptake (mmol/g)
1.08158	0.813578
5.20039	1.16539
10.1773	1.44427
20.2169	1.58156
30.1707	1.59015
40.0387	1.60731
45.3588	1.60302
49.9925	1.58586
