Adsorption isotherm of Carbon Dioxide on Carbon
DOI: 10.1016/j.coal.2011.05.001
Adsorbate Carbon Dioxide: InChIKey CURLTUGMZLYLDI-UHFFFAOYSA-N
Temperature: 298 K
Tabular data in the source: 0
pressure (bar)	uptake (mmol/g)
7.6666	0.58815
13.1686	0.731164
17.9371	0.845576
22.4304	0.968568
28.2993	1.11444
33.2511	1.24029
38.203	1.36901
42.6046	1.46626
47.0062	1.57209
51.0411	1.67506
54.8008	1.76373
62.5037	1.96395
