Adsorption isotherm of Carbon Dioxide on Carbon
DOI: 10.1016/j.coal.2011.05.001
Adsorbate Carbon Dioxide: InChIKey CURLTUGMZLYLDI-UHFFFAOYSA-N
Temperature: 298 K
Tabular data in the source: 0
pressure (bar)	uptake (mmol/g)
1.16739	1.10962
5.11458	1.71457
10.0057	1.94625
19.9595	2.13074
29.9991	2.15219
40.2961	2.17364
45.1872	2.17364
50.3357	2.17793
