Adsorption isotherm of Carbon Dioxide on Carbon
DOI: 10.1016/j.coal.2011.05.001
Adsorbate Carbon Dioxide: InChIKey CURLTUGMZLYLDI-UHFFFAOYSA-N
Temperature: 298 K
Tabular data in the source: 0
pressure (bar)	uptake (mmol/g)
0.909962	0.13569
5.45782	0.277274
10.1773	0.423149
20.0453	0.569023
29.9991	0.63338
40.1245	0.63767
45.1014	0.646251
50.2499	0.590475
