Adsorption isotherm of Carbon Dioxide on Carbon
DOI: 10.1016/j.coal.2011.05.001
Adsorbate Carbon Dioxide: InChIKey CURLTUGMZLYLDI-UHFFFAOYSA-N
Temperature: 298 K
Tabular data in the source: 0
pressure (bar)	uptake (mmol/g)
1.08158	0.659122
5.37201	1.04526
10.0915	1.31127
20.2169	1.56869
29.9991	1.7446
40.3819	1.93767
45.1872	1.97628
50.5073	1.93767
