Adsorption isotherm of Nitrogen on Zn2(BDC)2(TED)
DOI: 10.1021/Ja800087s
Adsorbate Nitrogen: InChIKey IJGRMHOSHXDMSA-UHFFFAOYSA-N
Temperature: 77 K
Tabular data in the source: 0
pressure (bar)	uptake (ml/g)
0.00180913	217.882
0.00207566	176.32
0.00235026	133.498
0.00417554	348.861
0.00446629	303.521
0.00472474	263.218
0.00713153	387.9
0.0615589	400.424
0.160932	404.073
0.266726	406.455
0.372536	406.318
0.478338	407.44
0.577727	408.571
0.683513	412.212
0.782878	417.121
0.882267	418.252
0.949439	443.354
