Adsorption isotherm of Nitrogen on [Zn2(bdc)2ted]n.pst
DOI: 10.1021/Ja800087s
Adsorbate Nitrogen: InChIKey IJGRMHOSHXDMSA-UHFFFAOYSA-N
Temperature: 77 K
Tabular data in the source: 0
pressure (bar)	uptake (ml/g)
0.00218873	158.687
0.00232603	137.277
0.00263293	89.4172
0.00276216	69.2659
0.00290753	46.5957
0.00626735	22.6619
0.0277023	180.065
0.104623	185.003
0.178353	187.426
0.258512	187.322
0.341877	187.214
0.41883	187.114
0.502179	189.525
0.575926	189.43
0.656077	190.585
0.733021	191.745
0.816379	192.896
0.89653	194.052
0.957402	201.53
