Adsorption isotherm of Carbon Dioxide on 2,3 DmaTph
DOI: 10.1039/c4cc07104b
Article source: Figure S19
Adsorbate Carbon Dioxide: InChIKey CURLTUGMZLYLDI-UHFFFAOYSA-N
Kind: experiment
Temperature: 273 K
Tabular data in the source: 0
pressure (bar)	uptake (cm3(STP)/g)
0.00077	0.48808
0.019363	0.473981
0.040852	13.7326
0.046651	2.03207
0.067995	3.20046
0.079757	16.7601
0.08971	4.19306
0.112588	4.85161
0.116853	19.4159
0.132523	5.86088
0.154123	6.74519
0.163367	22.2969
0.176375	7.65381
0.19668	8.62073
0.200998	24.4364
0.221054	9.8808
0.243296	10.6825
0.244427	26.3516
0.263579	11.6743
0.282798	28.0887
0.285143	12.5176
0.3055	13.4699
0.315	29.6494
0.328572	14.602
0.351435	15.4531
0.353001	31.3
0.371614	16.2971
0.393264	17.4437
0.396801	32.9897
0.412717	18.3968
0.436776	19.3394
0.44023	34.4668
0.45886	20.6283
0.481439	21.3024
0.481118	35.8208
0.502516	22.3787
0.515862	36.725
0.5239	23.2318
0.544571	24.3748
0.557255	38.3017
0.566378	25.6301
0.590506	26.6569
0.600006	39.2379
0.611316	27.6255
0.632683	28.7904
0.635663	40.0351
0.654745	30.0472
0.676008	31.0907
0.678352	41.1105
0.696667	32.1032
0.714008	41.9985
0.719067	32.6528
0.745432	34.168
0.752009	42.9962
0.763017	35.0963
0.7889	36.3164
0.795069	43.8769
0.805327	37.1036
0.83344	44.9871
0.840434	38.5754
0.851801	39.6197
0.8835	41.2094
0.903258	42.1205
0.912155	46.2532
0.946899	43.5601
0.953734	46.6691
0.970723	44.7178
0.988836	45.7942
1.00935	47.2915
0.870073	45.3976
0.869156	40.4819
