Adsorption isotherm of Nitrogen on 2,3 DmaTph treatment with water for 7 days
DOI: 10.1039/c4cc07104b
Article source: Figure S36
Adsorbate Nitrogen: InChIKey IJGRMHOSHXDMSA-UHFFFAOYSA-N
Kind: experiment
Temperature: 77 K
Tabular data in the source: 0
pressure (bar)	uptake (cm3(STP)/g)
0.000408	23.5527
0.007994	54.3011
0.028728	101.842
0.020404	78.8877
0.053436	123.56
0.057864	196.164
0.106866	213.933
0.139785	220.73
0.218112	238.398
0.272411	245.699
0.33598	257.231
0.350575	210.577
0.370413	260.422
0.379601	216.555
0.409436	222.28
0.435969	269.053
0.438572	225.955
0.465875	231.489
0.496228	295.743
0.513869	239.894
0.536253	244.104
0.534634	303.092
0.565389	249.906
0.595113	256.675
0.611447	314.31
0.624838	262.574
0.654562	269.246
0.672368	327.51
0.680314	275.145
0.712363	282.717
0.710774	335.031
0.741764	291.594
0.766397	354.94
0.768715	299.406
0.800036	311.351
0.829084	325.141
0.852481	334.907
0.872346	353.958
0.909428	396.797
0.925321	423.722
0.963727	493.814
0.878876	466.587
0.813505	383.85
0.079898	133.254
0.112583	145.982
0.144058	157.12
0.167059	165.076
0.191271	172.235
0.216693	180.191
0.251799	187.351
0.2748	192.124
0.301433	199.284
0.329276	206.444
0.487861	235.879
0.002421	36.5951
