Adsorption isotherm of Nitrogen on 2,3 DhaTph treatment with water for 7 days
DOI: 10.1039/c4cc07104b
Article source: Figure S32
Adsorbate Nitrogen: InChIKey IJGRMHOSHXDMSA-UHFFFAOYSA-N
Kind: experiment
Temperature: 77 K
Tabular data in the source: 0
pressure (bar)	uptake (cm3(STP)/g)
0.000569	87.5264
0.00086	60.3684
0.00086	30.2607
0.00086	14.2327
0.004029	110.524
0.005529	149.847
0.008565	213.191
0.006613	186.701
0.019704	167.521
0.029511	225.668
0.029208	195.361
0.050388	218.961
0.068672	260.667
0.076659	238.466
0.111393	248.37
0.140391	264.605
0.141074	252.925
0.168396	261.659
0.180691	287.284
0.193896	266.822
0.214387	279.99
0.216816	268.729
0.239059	274.598
0.25628	276.125
0.257191	296.114
0.277682	277.687
0.300409	281.735
0.307736	302.448
0.331952	284.388
0.35765	289.582
0.36716	310.662
0.387879	291.443
0.388724	311.114
0.408977	294.45
0.43329	294.962
0.449534	318.258
0.454589	298.705
0.470982	299.569
0.494888	302.957
0.514013	328.49
0.520843	308.495
0.550372	308.665
0.56647	331.241
0.574316	310.439
0.605768	314.781
0.621592	330.003
0.635139	317.229
0.660183	321.164
0.68803	325.246
0.70071	337
0.719744	328.362
0.742148	330.873
0.759224	346.069
0.770445	333.956
0.781764	344.815
0.794969	337
0.819407	343.718
0.840505	356.387
0.841481	343.334
0.864639	349.861
0.881488	352.064
0.897425	372.127
0.905052	357.011
0.928058	368.002
0.937497	386.011
0.956622	380.847
0.973015	415.508
0.982453	402.49
1.01042	458.151
