Adsorption isotherm of Hydrogen on 2,3 DmaTph
DOI: 10.1039/c4cc07104b
Article source: Figure S20
Adsorbate Hydrogen: InChIKey UFHFLCQGNIYNRP-UHFFFAOYSA-N
Kind: experiment
Temperature: 77 K
Tabular data in the source: 0
pressure (bar)	uptake (cm3(STP)/g)
0.00964	10.4612
0.008372	6.05728
0.007105	2.95786
0.004931	0.398704
0.026466	30.3046
0.027388	18.7962
0.040455	34.9495
0.050597	26.9724
0.075561	42.729
0.075951	32.2547
0.100915	46.3355
0.101305	37.2308
0.126269	49.9468
0.126269	40.8239
0.154158	52.9258
0.161995	44.1292
0.179512	55.039
0.19726	47.0891
0.203236	57.1551
0.22944	51.2253
0.240752	60.6682
0.248982	52.7268
0.278393	62.6967
0.278783	54.8387
0.304137	57.0588
0.329101	57.8659
0.331636	65.9546
0.354455	60.1057
0.355235	67.4653
0.379809	69.0504
0.405553	70.5939
0.430517	71.8086
0.455871	73.3493
0.464063	65.9699
0.481225	74.5289
0.486296	66.4675
0.506579	75.4504
0.51048	68.4044
0.531933	75.4578
0.532714	68.2207
0.555444	76.017
0.557076	71.4769
0.579382	76.3108
0.582642	71.322
0.60234	77.5621
0.608503	73.5668
0.631984	74.1308
0.663775	76.1852
0.68448	76.2429
0.709412	77.8842
0.714483	82.0722
0.733136	78.6444
0.737301	84.3131
0.756	80.6196
0.76012	84.3991
0.776946	80.7458
0.782939	85.3289
0.807659	85.7218
0.833583	86.6941
0.834733	83.0097
0.862569	85.2836
0.860223	87.5605
0.888605	85.8932
0.890059	87.8163
0.908124	86.4965
0.913005	89.3843
0.932527	87.3341
0.938359	89.6364
0.95991	90.1986
0.632939	79.3317
0.656652	79.3317
0.684012	81.0501
0.304613	64.4391
0.430472	63.8663
0.404935	63.8663
0.379399	61.8616
0.80987	82.7685
1.00687	91.6468
1.00869	90.2148
0.986802	91.074
0.986802	90.5012
0.963089	88.4964
