Adsorption isotherm of Nitrogen on 2,3 DmaTph after 3 recycles
DOI: 10.1039/c4cc07104b
Article source: Figure S43
Adsorbate Nitrogen: InChIKey IJGRMHOSHXDMSA-UHFFFAOYSA-N
Kind: experiment
Temperature: 77 K
Tabular data in the source: 0
pressure (bar)	uptake (cm3(STP)/g)
0.001556	21.6747
0.032137	40.1344
0.060627	44.9987
0.089118	47.8501
0.116387	48.549
0.143808	50.7015
0.174673	50.8646
0.20435	53.3433
0.228029	53.5571
0.259906	53.8325
0.291205	56.3982
0.311133	56.4954
0.33778	57.6484
0.364268	58.1376
0.395995	59.7992
0.423852	60.0945
0.453545	60.2706
0.496134	60.8185
0.524957	62.0271
0.547503	61.7718
0.578537	62.2191
0.612049	63.1666
0.633688	63.7837
0.665422	64.6617
0.693493	65.597
0.717773	65.9651
0.751466	67.8073
0.775701	68.4811
0.800753	68.8838
0.832681	71.668
0.866745	77.9534
0.887418	74.9178
0.927935	81.7543
0.955824	81.5376
0.989749	87.9146
1.00207	114.495
0.980177	92.7835
0.939286	77.7161
0.912226	74.9405
0.856903	70.9754
0.809999	75.7335
0.755878	73.3545
0.678908	70.9754
0.650043	70.1824
0.591113	68.5964
0.174989	56.701
0.114855	53.5289
0.251959	58.2871
0.303674	62.2522
0.368619	63.8382
0.397483	64.6312
0.48167	67.0103
0.46844	61.4592
0.512939	67.8033
