Adsorption isotherm of Nitrogen on 2,3 DhaTph treatment with 3N HCl for 7 days
DOI: 10.1039/c4cc07104b
Article source: Figure S33
Adsorbate Nitrogen: InChIKey IJGRMHOSHXDMSA-UHFFFAOYSA-N
Kind: experiment
Temperature: 77 K
Tabular data in the source: 0
pressure (bar)	uptake (cm3(STP)/g)
0.001767	78.3103
0.002648	46.3467
0.002445	19.881
0.026305	124.16
0.014173	105.523
0.039171	157.652
0.047946	139.398
0.073268	150.204
0.077433	187.307
0.094825	157.907
0.1229	168.144
0.137683	203.319
0.149485	174.516
0.176815	181.4
0.192964	217.546
0.204145	188.357
0.224021	221.956
0.231475	194.657
0.258529	200.49
0.284271	205.419
0.301042	236.228
0.312085	210.873
0.340795	215.656
0.366883	246.837
0.363653	220.696
0.38385	224.951
0.417638	255.113
0.435725	234.294
0.408262	230.252
0.475374	265.802
0.465665	240.182
0.491266	245.048
0.53253	280.457
0.521339	253.876
0.576578	264.332
0.603396	272.031
0.591496	290.905
0.631859	276.433
0.640255	300.819
0.659594	281.272
0.707627	300.906
0.698984	315.86
0.728384	307.196
0.757646	314.705
0.759441	337.403
0.785529	327.528
0.814349	361.656
0.822797	339.818
0.855096	393.105
0.858823	366.33
0.892364	386.688
0.902302	448.486
0.91721	423.904
0.920233	497.202
0.95572	481.829
0.961931	519.104
0.9669	615.13
0.976839	566.703
0.680997	293.215
0.547851	261.209
0.994927	666.962
