Adsorption isotherm of Carbon Dioxide on 2,3 DhaTph
DOI: 10.1039/c4cc07104b
Article source: Figure S19
Adsorbate Carbon Dioxide: InChIKey CURLTUGMZLYLDI-UHFFFAOYSA-N
Kind: experiment
Temperature: 273 K
Tabular data in the source: 0
pressure (bar)	uptake (cm3(STP)/g)
0.024566	2.49609
0.04628	5.35555
0.070586	7.785
0.082698	18.4543
0.111142	10.6707
0.122088	21.7797
0.127963	12.2765
0.145237	13.7468
0.157568	24.5567
0.183355	16.1131
0.195569	27.2113
0.216153	18.4057
0.244427	20.1178
0.245785	30.6898
0.272928	21.9924
0.281071	32.5506
0.302786	23.8172
0.321786	35.1042
0.331286	25.484
0.355715	36.863
0.369883	27.5571
0.390459	29.0864
0.400502	39.2969
0.417991	30.6007
0.436603	31.7362
0.442574	41.5665
0.469841	34.2989
0.476504	43.2069
0.493129	35.6672
0.515862	44.8847
0.519933	36.9821
0.549791	38.6981
0.557934	47.1042
0.58061	40.2551
0.594577	48.5637
0.597575	41.4368
0.646254	43.862
0.638007	50.6259
0.669222	45.2957
0.674651	51.8235
0.709175	47.6523
0.71808	53.9139
0.756081	55.2339
0.788159	51.9146
0.798153	57.2267
0.806618	53.2605
0.841854	58.4791
0.845407	55.4633
0.864925	56.6481
0.88094	59.841
0.910572	59.0751
0.924996	60.6309
0.953866	61.5888
0.984085	63.2736
1.00444	63.8542
0.76728	50.8916
0.748924	49.8795
0.728732	48.5783
0.961853	63.1807
0.914128	61.4458
0.044054	14.1687
0.684678	46.4096
0.616761	42.6506
0.534159	38.0241
0.346928	26.4578
0.084437	9.10843
0.165204	15.0361
0.457064	32.8193
0.826019	54.7952
0.893936	58.2651
0.227614	19.0843
0.001836	0.144578
