Adsorption isotherm of Nitrogen on 2,3 DhaTph after 3 recycles
DOI: 10.1039/c4cc07104b
Article source: Figure S42
Adsorbate Nitrogen: InChIKey IJGRMHOSHXDMSA-UHFFFAOYSA-N
Kind: experiment
Temperature: 77 K
Tabular data in the source: 0
pressure (bar)	uptake (cm3(STP)/g)
0.001247	7.44579
0.009494	57.6423
0.018642	101.029
0.047656	111.859
0.074822	119.578
0.083231	158.173
0.103024	126.58
0.128638	130.881
0.128832	165.203
0.155028	135.607
0.184523	140.805
0.188016	176.46
0.210007	145.216
0.236527	148.839
0.247393	180.503
0.266022	153.045
0.289889	185
0.291414	156.046
0.318673	160.379
0.347133	163.466
0.354248	187.487
0.372359	166.798
0.402297	170.295
0.415049	197.387
0.427985	174.576
0.455151	176.919
0.47171	202.935
0.482228	179.262
0.508967	183.15
0.524684	218.822
0.535357	186.017
0.562523	188.773
0.583868	221.855
0.590336	191.806
0.616856	195.39
0.640141	228.471
0.645316	197.871
0.672482	201.179
0.697708	235.363
0.69884	205.273
0.72164	235.683
0.727462	208.071
0.758509	213.584
0.787616	220.289
0.820991	224.171
0.842702	229.8
0.851651	253.626
0.869115	233.725
0.897412	241.994
0.924418	252.138
0.94529	262.545
0.962256	287.947
0.975506	274.785
1.00301	324.683
0.912106	265.836
0.79892	245.308
