Adsorption isotherm of Nitrogen on 2,3 DmaTph
DOI: 10.1039/c4cc07104b
Article source: Figure 3
Adsorbate Nitrogen: InChIKey IJGRMHOSHXDMSA-UHFFFAOYSA-N
Kind: experiment
Temperature: 77 K
Tabular data in the source: 0
pressure (bar)	uptake (cm3(STP)/g)
0.002343	82.8111
0.0015	52.6913
0.000204	26.5628
0.000898	5.58954
0.008382	110.335
0.025728	145.472
0.046285	173.764
0.080521	205.525
0.094965	181.125
0.121445	224.856
0.122436	188.646
0.148827	190.561
0.174404	236.958
0.175537	198.738
0.201365	201.164
0.228326	205.476
0.236792	250.564
0.254834	209.086
0.282042	214.46
0.289952	260.807
0.307855	217.927
0.334335	221.986
0.341019	266.617
0.359922	226.435
0.379019	275.948
0.38513	236.912
0.415449	234.773
0.427383	280.716
0.441608	237.769
0.468947	243.89
0.476112	289.639
0.494246	247.806
0.521528	251.861
0.525621	297.858
0.550897	253.476
0.567537	306.032
0.576263	259.544
0.600486	263.99
0.622667	309.211
0.630175	269.573
0.655692	273.507
0.681036	279.438
0.687147	323.24
0.720848	285.798
0.738501	336.671
0.746967	292.594
0.769868	301.082
0.795472	354.911
0.799685	310.993
0.832441	322.258
0.855839	371.891
0.860468	333.648
0.883853	342.598
0.903317	394.889
0.908312	362.633
0.921131	418.146
0.929797	383.644
0.942515	457.738
0.949235	420.922
0.968794	501.402
0.970694	451.366
0.983438	474.978
0.994371	544.92
0.991529	507.653
0.052734	162.903
