Adsorption isotherm of Nitrogen on 2,3 DhaTph
DOI: 10.1039/c4cc07104b
Article source: Figure 3
Adsorbate Nitrogen: InChIKey IJGRMHOSHXDMSA-UHFFFAOYSA-N
Kind: experiment
Temperature: 77 K
Tabular data in the source: 0
pressure (bar)	uptake (cm3(STP)/g)
0.00796	188.078
0.005094	138.498
0.025155	225.211
0.027562	194.222
0.048291	241.095
0.076633	263.155
0.101631	282.249
0.129469	284.785
0.154745	297.461
0.181454	297.387
0.208105	310.734
0.233659	308.764
0.261065	320.65
0.286541	321.4
0.41894	346.739
0.440103	343.241
0.456252	359.091
0.482531	352.776
0.504196	379.877
0.533083	361.838
0.558158	388.673
0.584948	371.445
0.607708	402.896
0.634187	382.074
0.659186	412.284
0.683443	394.335
0.709738	427.458
0.734288	410.243
0.760367	446.265
0.78484	428.467
0.809916	474.302
0.836195	450.932
0.860468	509.536
0.88454	537.215
0.886776	490.855
0.91102	520.92
0.919908	574.716
0.939907	566.695
0.95081	610.171
0.967074	602.796
0.981432	641.89
0.993067	668.673
0.378556	337.097
0.354072	345.161
0.325822	322.581
0.301338	332.258
0.045201	224.194
0.007533	161.29
0.00565	117.742
0.00565	103.226
0.00565	90.3226
0.001883	67.7419
0.003767	46.7742
0	17.7419
0	1.6129
