Adsorption isotherm of Nitrogen on 2,3 DmaTph treatment with 3N HCl for 3 days
DOI: 10.1039/c4cc07104b
Article source: Figure S37
Adsorbate Nitrogen: InChIKey IJGRMHOSHXDMSA-UHFFFAOYSA-N
Kind: experiment
Temperature: 77 K
Tabular data in the source: 0
pressure (bar)	uptake (cm3(STP)/g)
0.009694	46.7352
0.02158	65.7392
0.037033	88.2227
0.060146	98.9614
0.082202	131.108
0.082202	103.992
0.113108	109.457
0.132127	137.119
0.141636	114.141
0.164221	117.264
0.189183	143.157
0.193937	121.167
0.222465	124.056
0.24505	126.459
0.248616	149.402
0.274767	129.521
0.291408	151.77
0.302106	132.704
0.330634	135.046
0.355596	157.157
0.357973	136.937
0.380558	139.73
0.40887	141.678
0.419784	162.023
0.438803	144.432
0.466312	146.577
0.474463	168.268
0.493482	149.662
0.525576	152.568
0.532708	179.834
0.552915	155.908
0.579066	157.547
0.588575	184.127
0.607594	160.279
0.630178	161.936
0.648008	186.823
0.65514	164.651
0.686046	168.164
0.702687	190.107
0.70863	170.177
0.728838	192.99
0.735213	172.432
0.764498	176.049
0.79616	179.566
0.804913	198.22
0.821554	182.529
0.846991	187.915
0.862941	202.497
0.873855	188.989
0.902383	196.035
0.921078	211.493
0.932628	203.139
0.954685	210.653
0.97093	227.134
0.986779	223.593
1.00936	255.991
0.003643	31.8979
0	18.3413
