Adsorption isotherm of Hydrogen on 2,3 DhaTph
DOI: 10.1039/c4cc07104b
Article source: Figure S20
Adsorbate Hydrogen: InChIKey UFHFLCQGNIYNRP-UHFFFAOYSA-N
Kind: experiment
Temperature: 77 K
Tabular data in the source: 0
pressure (bar)	uptake (cm3(STP)/g)
0.008718	26.3358
0.008626	20.5491
0.008372	16.6564
0.006851	14.0655
0.024176	35.7222
0.011929	26.5988
0.026786	34.1298
0.050763	48.6198
0.052742	45.0773
0.074293	56.2775
0.102182	62.833
0.128533	64.6219
0.129058	67.8432
0.148697	68.9778
0.153876	72.6058
0.17416	72.4721
0.176695	76.1109
0.201331	75.8105
0.201063	80.2199
0.227121	79.0185
0.226417	83.4859
0.25331	86.0752
0.252948	82.3139
0.279661	88.6843
0.282034	85.1778
0.302479	91.4063
0.305649	87.1683
0.327833	93.3055
0.330369	88.8933
0.35935	92.0899
0.359888	95.1107
0.381077	96.5897
0.385074	93.8053
0.404318	98.5691
0.410868	95.3457
0.42925	101.077
0.431785	96.5732
0.456428	98.5647
0.458407	102.482
0.479958	104.147
0.484286	100.748
0.505312	105.739
0.51334	102.537
0.530122	106.188
0.535103	103.755
0.558956	104.933
0.557006	107.43
0.585177	110.048
0.58473	106.961
0.606728	111.377
0.610626	108.426
0.632197	112.035
0.634649	109.592
0.657436	113.648
0.662507	110.582
0.687854	112.204
0.686593	115.622
0.708144	116.409
0.712042	113.763
0.734585	117.715
0.759608	118.622
0.767726	115.731
0.786214	120.007
0.787809	116.886
0.814631	121.575
0.814631	118.17
0.833393	122.313
0.839668	119.604
0.858325	123.156
0.884366	123.358
0.916876	122.487
0.918583	123.847
0.938866	124.18
0.960236	125
0.984905	126.166
1.01219	126.928
1.00687	126.874
0.992274	126.587
0.964913	124.869
0.935729	124.01
0.884656	121.432
0.860943	120.716
0.736909	114.558
0.102146	60.4296
0.076609	53.8425
0.005472	10.8831
0.005472	7.1599
0.005472	3.86635
0.005472	0.286396
