Adsorption isotherm of Nitrogen on [Zn2(L)(btc)(Hbtc)][NH2(CH3)2]*(DMF)2(H2O)4
DOI: 10.1039/C2dt31905e
Adsorbate Nitrogen: InChIKey IJGRMHOSHXDMSA-UHFFFAOYSA-N
Temperature: 77 K
Tabular data in the source: 0
pressure (bar)	uptake (cm3(STP)/g)
0.0262013	0.51187
0.163458	0.774055
0.260867	0.774055
0.393696	0.86145
0.495532	0.948845
0.628361	0.948845
0.74348	1.12364
0.836461	0.774055
0.982573	0.249685
