Adsorption isotherm of Carbon Dioxide on [Zn2(L)(btc)(Hbtc)][NH2(CH3)2]*(DMF)2(H2O)4
DOI: 10.1039/C2dt31905e
Adsorbate Carbon Dioxide: InChIKey CURLTUGMZLYLDI-UHFFFAOYSA-N
Temperature: 273 K
Tabular data in the source: 0
pressure (bar)	uptake (cm3(STP)/g)
0.0262013	8.55221
0.0439119	11.3488
0.0859746	16.243
0.125823	18.6026
0.147962	20.7875
0.185597	23.1472
0.265294	26.9051
0.344992	29.2648
0.468966	32.4984
0.659355	35.8194
0.851957	38.2665
0.973718	39.1404
