Adsorption isotherm of Nitrogen on [Zn2(L)(btc)(Hbtc)][NH2(CH3)2]*(DMF)2(H2O)4
DOI: 10.1039/C2dt31905e
Adsorbate Nitrogen: InChIKey IJGRMHOSHXDMSA-UHFFFAOYSA-N
Temperature: 273 K
Tabular data in the source: 0
pressure (bar)	uptake (cm3(STP)/g)
0.0129184	0.162291
0.152389	0.249685
0.36713	0.0748956
0.62172	-0.711659
0.874096	-0.886449
0.960435	-1.06124
1.00028	-0.624264
