Adsorption isotherm of Carbon Dioxide on Mg-MOF-74
DOI: 10.1021/Jp500313j
Adsorbate Carbon Dioxide: InChIKey CURLTUGMZLYLDI-UHFFFAOYSA-N
Temperature: 313 K
Tabular data in the source: 0
pressure (bar)	uptake (mmol/g)
8.44517	1.21244
29.2243	2.61474
58.1692	3.86584
107.536	4.7768
208.118	5.61394
345.546	6.26309
480.878	6.68488
622.342	7.03115
735.103	7.30057
851.953	7.53227
940.1	7.68712
995.436	7.7271
