Adsorption isotherm of Carbon Dioxide on Fe-MOF-74
DOI: 10.1021/Jp500313j
Adsorbate Carbon Dioxide: InChIKey CURLTUGMZLYLDI-UHFFFAOYSA-N
Temperature: 308 K
Tabular data in the source: 0
pressure (bar)	uptake (molecules/formula unit)
0.011555	0.0334247
0.0147638	0.0593247
0.0289212	0.0854085
0.0345303	0.0928872
0.0544315	0.133837
0.0772047	0.182219
0.10285	0.238034
0.111398	0.256639
0.153803	0.331197
0.190464	0.390889
0.229795	0.446934
0.266254	0.495546
0.305382	0.54051
0.347181	0.581827
0.383505	0.623052
0.422364	0.653242
0.458486	0.683387
0.491736	0.706099
0.525054	0.732504
0.563778	0.755308
0.60257	0.781805
0.635753	0.800824
0.679884	0.820026
0.713067	0.839044
0.751657	0.854461
0.78484	0.87348
0.823362	0.885203
0.859282	0.904268
0.897804	0.915991
0.933724	0.935056
0.972246	0.946779
1.01077	0.958502
1.04655	0.97018
1.08795	0.989336
