Adsorption isotherm of Carbon Dioxide on Fe-MOF-74
DOI: 10.1021/Jp500313j
Adsorbate Carbon Dioxide: InChIKey CURLTUGMZLYLDI-UHFFFAOYSA-N
Temperature: 318 K
Tabular data in the source: 0
pressure (bar)	uptake (molecules/formula unit)
1.66533e-16	-2.22045e-16
0.00574382	0.0148656
0.0112855	0.0186509
0.0197665	0.0335625
0.0255103	0.0484281
0.0366611	0.0596922
0.053623	0.0895154
0.0734569	0.126771
0.0902167	0.145514
0.11272	0.179123
0.149314	0.235121
0.182968	0.279994
0.227639	0.328744
0.261293	0.373616
0.300287	0.411194
0.339214	0.445078
0.378208	0.482655
0.417134	0.516539
0.453189	0.542991
0.486506	0.569396
0.522561	0.595847
0.561353	0.622344
0.600077	0.645148
0.636065	0.667906
0.674654	0.683323
0.710642	0.706081
0.746629	0.728839
0.785219	0.744255
0.823808	0.759672
0.859661	0.775043
0.895513	0.790414
0.928629	0.805739
0.969888	0.817509
1.00574	0.83288
1.04159	0.848251
1.08292	0.863713
