Adsorption isotherm of Carbon Dioxide on Fe-MOF-74
DOI: 10.1021/Jp500313j
Adsorbate Carbon Dioxide: InChIKey CURLTUGMZLYLDI-UHFFFAOYSA-N
Temperature: 298 K
Tabular data in the source: 0
pressure (bar)	uptake (molecules/formula unit)
-0.00242173	0.0221132
0.00887408	0.0518412
0.0173459	0.0741373
0.0342896	0.118729
0.0400884	0.144673
0.0627805	0.211515
0.0798248	0.263494
0.088548	0.304255
0.124958	0.378713
0.155971	0.456772
0.197727	0.523934
0.233986	0.587312
0.272867	0.643349
0.308825	0.684568
0.347505	0.725832
0.383412	0.763358
0.421892	0.78985
0.460421	0.820035
0.49068	0.842697
0.52916	0.869189
0.564815	0.888249
0.603244	0.911047
0.641623	0.930153
0.674505	0.945474
0.712834	0.960887
0.748489	0.979947
0.786868	0.999052
0.822474	1.01442
0.860802	1.02983
0.899081	1.04155
0.931962	1.05687
0.970291	1.07228
1.00862	1.0877
1.04417	1.09937
1.07973	1.11104
