Adsorption isotherm of Carbon Dioxide on Fe-MOF-74
DOI: 10.1021/Jp500313j
Adsorbate Carbon Dioxide: InChIKey CURLTUGMZLYLDI-UHFFFAOYSA-N
Temperature: 298 K
Tabular data in the source: 0
pressure (bar)	uptake (mmol/g)
0.025821	0.482645
0.0533572	0.965485
0.0774586	1.42509
0.10671	1.90813
0.201374	3.60929
0.40758	5.57447
0.610182	6.62553
0.812714	7.3111
1.01522	7.85961
