Adsorption isotherm of Carbon Dioxide on Mg-MOF-74 (UFF)
DOI: 10.1021/Jp500313j
Adsorbate Carbon Dioxide: InChIKey CURLTUGMZLYLDI-UHFFFAOYSA-N
Temperature: 313 K
Tabular data in the source: 0
pressure (bar)	uptake (mmol/g)
20.5075	0.0765344
49.235	0.267016
71.7995	0.381508
100.519	0.534111
252.338	1.41107
508.783	2.86018
763.147	4.15769
