Adsorption isotherm of Carbon Dioxide on Mg-MOF-74
DOI: 10.1021/Jp500313j
Adsorbate Carbon Dioxide: InChIKey CURLTUGMZLYLDI-UHFFFAOYSA-N
Temperature: 313 K
Tabular data in the source: 0
pressure (bar)	uptake (mmol/g)
0.00206898	0.0759143
0.00638583	1.09897
0.0231865	2.91842
0.0482476	4.96578
0.0751598	6.02842
0.0999331	6.67424
0.200815	7.96976
0.299512	8.62118
0.400215	9.04547
0.500902	9.39401
0.603628	9.66694
0.704308	9.9776
0.802934	10.2881
0.905652	10.5232
1.00425	10.72
