Adsorption isotherm of Carbon Dioxide on Mg-MOF-74
DOI: 10.1021/Jp500313j
Adsorbate Carbon Dioxide: InChIKey CURLTUGMZLYLDI-UHFFFAOYSA-N
Temperature: 313 K
Tabular data in the source: 0
pressure (bar)	uptake (mmol/g)
2.11129	0.30311
10.3935	0.720091
22.937	1.93269
47.8534	3.52454
72.6844	4.69972
99.4869	5.49619
200.231	7.1288
298.732	7.81435
403.327	8.23497
499.717	8.61741
602.223	8.84857
702.68	9.07965
805.179	9.27292
901.538	9.50385
1001.97	9.62129
