Adsorption isotherm of Nitrogen on MIL-101(Al)-NH2
DOI: 10.1039/C3cy00268c
Adsorbate Nitrogen: InChIKey IJGRMHOSHXDMSA-UHFFFAOYSA-N
Temperature: 77 K
Tabular data in the source: 0
pressure (bar)	uptake (cm3(STP)/g)
0.0127495	227.664
0.0345982	284.252
0.0630016	330.134
0.0957747	365.311
0.132918	397.428
0.163506	405.075
0.180985	428.017
0.202833	438.722
0.26838	444.84
0.331741	450.958
0.43443	461.664
0.497791	478.487
0.598296	502.958
0.696615	515.193
0.762161	524.37
0.808044	522.84
0.884514	532.017
0.941321	550.37
0.974094	580.958
0.993758	611.546
