Adsorption isotherm of Nitrogen on NH2-MIL-53(Al)
DOI: 10.1039/C3cy00268c
Adsorbate Nitrogen: InChIKey IJGRMHOSHXDMSA-UHFFFAOYSA-N
Temperature: 77 K
Tabular data in the source: 0
pressure (bar)	uptake (cm3(STP)/g)
0.0651864	77.7813
0.111069	88.4871
0.180985	97.6636
0.277119	114.487
0.388548	117.546
0.51527	132.84
0.655102	149.664
0.803674	186.369
0.912918	250.605
0.965355	322.487
0.978464	447.899
0.982834	554.958
