Adsorption isotherm of Nitrogen on Hemin-MOF
DOI: 10.1039/C3cy00268c
Adsorbate Nitrogen: InChIKey IJGRMHOSHXDMSA-UHFFFAOYSA-N
Temperature: 77 K
Tabular data in the source: 0
pressure (bar)	uptake (cm3(STP)/g)
0.00619484	60.9577
0.0564469	85.4283
0.113254	105.311
0.207203	114.487
0.25964	119.075
0.347035	119.075
0.421321	117.546
0.495607	117.546
0.585186	128.252
0.714094	142.017
0.801489	174.134
0.871405	229.193
0.932581	272.017
0.982834	310.252
0.989388	324.017
