Adsorption isotherm of Nitrogen on Zeolite 10X-Carbon-C70
DOI: 10.1021/am403810j
Adsorbate Nitrogen: InChIKey IJGRMHOSHXDMSA-UHFFFAOYSA-N
Temperature: 77 K
Tabular data in the source: 0
pressure (bar)	uptake (cm3(STP)/g)
0.00538238	0.00538238
0.00807357	454.919
0.0107648	493.656
0.0161471	566.29
0.0242207	595.403
0.0269119	629.3
0.0645886	726.45
0.0941917	799.325
0.142633	862.711
0.169545	911.366
0.201839	935.882
0.255663	965.45
0.309487	995.018
0.357928	1019.69
0.392914	1039.4
0.441355	1049.56
0.492488	1069.42
0.540929	1089.26
0.58668	1104.23
0.637812	1119.26
0.686254	1134.26
0.734695	1144.42
0.780445	1169.06
0.828887	1184.06
0.88002	1203.93
0.92577	1223.74
0.97152	1253.23
