Adsorption isotherm of Hydrogen on Zeolite 10X-Carbon-C70
DOI: 10.1021/am403810j
Adsorbate Hydrogen: InChIKey UFHFLCQGNIYNRP-UHFFFAOYSA-N
Temperature: 77 K
Tabular data in the source: 0
pressure (bar)	uptake (cm3(STP)/g)
1.08075	2.12187
2.08232	2.71085
3.01587	3.11078
4.08232	3.51085
5.01482	3.78479
6.14615	3.99595
7.07848	4.2489
8.07674	4.43893
9.07482	4.60795
10.1392	4.75605
11.0708	4.92501
12.0691	5.11503
13.0668	5.24206
14.0645	5.3691
15.0624	5.51713
16.06	5.62316
17.0579	5.77119
18.1219	5.87729
19.053	5.98326
20.0507	6.11029
