Adsorption isotherm of Hydrogen on Zeolite 10X-Carbon-C75
DOI: 10.1021/am403810j
Adsorbate Hydrogen: InChIKey UFHFLCQGNIYNRP-UHFFFAOYSA-N
Temperature: 77 K
Tabular data in the source: 0
pressure (bar)	uptake (wt%)
0.0677966	0.58209
0.20339	0.820896
0.271186	1
0.474576	1.34328
0.745763	1.56716
0.881356	1.74627
1.01695	1.9403
2.0339	2.58209
3.05085	3
4	3.31343
5.01695	3.56716
6.0339	3.80597
6.98305	3.98507
8	4.16418
9.01695	4.32836
9.9661	4.47761
11.0508	4.61194
12	4.77612
12.9492	4.89552
14.0339	5.02985
15.0508	5.14925
16.0678	5.25373
17.0169	5.37313
18.1017	5.47761
19.0508	5.56716
20.0678	5.67164
