Adsorption isotherm of Hydrogen on Zeolite 10X-Carbon-C60
DOI: 10.1021/am403810j
Adsorbate Hydrogen: InChIKey UFHFLCQGNIYNRP-UHFFFAOYSA-N
Temperature: 77 K
Tabular data in the source: 0
pressure (bar)	uptake (wt%)
0.338983	1.22388
0.474576	1.35821
0.542373	1.47761
0.813559	1.62687
0.949153	1.8209
2.0339	2.37313
3.11864	2.74627
4.0678	3.02985
4.94915	3.25373
6.0339	3.47761
6.98305	3.64179
7.9322	3.80597
9.08475	3.92537
9.9661	4.07463
12	4.31343
14.0339	4.55224
16	4.74627
18.1017	4.9403
19.0508	5.04478
20.0678	5.13433
