Adsorption isotherm of Hydrogen on Zeolite 10X-Carbon-C80
DOI: 10.1021/am403810j
Adsorbate Hydrogen: InChIKey UFHFLCQGNIYNRP-UHFFFAOYSA-N
Temperature: 77 K
Tabular data in the source: 0
pressure (bar)	uptake (wt%)
0.135593	0.268657
0.338983	0.522388
0.610169	0.746269
0.813559	0.940299
1.08475	1.07463
2.10169	1.41791
4.0678	1.83582
6.0339	2.07463
7.9322	2.29851
9.9661	2.49254
10.9831	2.58209
12.0678	2.67164
14.1017	2.8209
16.2034	2.97015
18.0339	3.08955
20.2034	3.23881
