Adsorption isotherm of Nitrogen on Zeolite 10X-Carbon-C75
DOI: 10.1021/am403810j
Adsorbate Nitrogen: InChIKey IJGRMHOSHXDMSA-UHFFFAOYSA-N
Temperature: 77 K
Tabular data in the source: 0
pressure (bar)	uptake (cm3(STP)/g)
0.00323038	183.727
0.0034954	280.84
0.00634615	325.459
0.00920407	372.703
0.0120405	412.073
0.028529	454.068
0.0422743	490.814
0.0559837	514.436
0.0724292	540.682
0.0970689	569.554
0.13266	611.549
0.160022	637.795
0.192827	658.793
0.242035	690.289
0.296686	716.535
0.345865	737.533
0.384107	750.656
0.433265	763.78
0.482422	776.903
0.534302	787.402
0.583459	800.525
0.635332	808.399
0.684489	821.522
0.728189	834.646
0.777346	847.769
0.829233	860.892
0.875662	874.016
0.924826	889.764
0.971334	931.759
