Adsorption isotherm of Hydrogen on Zeolite 10X-Carbon-C70
DOI: 10.1021/am403810j
Adsorbate Hydrogen: InChIKey UFHFLCQGNIYNRP-UHFFFAOYSA-N
Temperature: 77 K
Tabular data in the source: 0
pressure (bar)	uptake (cm3(STP)/g)
0.00296477	0.356958
0.137775	0.588071
0.27398	0.987164
0.342518	1.2392
0.677537	1.57551
0.812522	1.82762
1.0804	2.07987
2.0157	2.68978
2.94995	3.1737
4.08249	3.53185
4.94838	3.78472
6.01395	4.0798
7.01238	4.29083
7.07865	4.2699
8.07708	4.48092
8.07743	4.52292
9.00907	4.69187
10.0739	4.90296
11.0052	5.02993
12.0033	5.19895
13.068	5.38905
14.0657	5.51608
15.0635	5.64311
16.0616	5.81214
17.1257	5.93924
18.0572	6.0872
19.1216	6.2353
20.0527	6.34126
