Adsorption isotherm of Nitrogen on Zeolite 10X-Carbon-C80
DOI: 10.1021/am403810j
Adsorbate Nitrogen: InChIKey IJGRMHOSHXDMSA-UHFFFAOYSA-N
Temperature: 77 K
Tabular data in the source: 0
pressure (bar)	uptake (cm3(STP)/g)
0.0031301	146.982
0.00568002	81.3648
0.00596653	186.352
0.0169684	217.848
0.0279489	241.47
0.0416439	259.843
0.0772067	291.339
0.0963383	301.837
0.134609	325.459
0.164678	343.832
0.194747	362.205
0.241182	377.953
0.293083	396.325
0.353164	412.073
0.385926	417.323
0.43782	433.071
0.486956	438.32
0.538836	448.819
0.58525	456.693
0.626199	461.942
0.680815	475.066
0.732687	482.94
0.776365	488.189
0.825516	498.688
0.874673	511.811
0.91838	527.559
0.967616	569.554
