Adsorption isotherm of Hydrogen on Zeolite 10X-Carbon-C70
DOI: 10.1021/am403810j
Adsorbate Hydrogen: InChIKey UFHFLCQGNIYNRP-UHFFFAOYSA-N
Temperature: 77 K
Tabular data in the source: 0
pressure (bar)	uptake (wt%)
0.20339	0.686567
0.271186	0.955224
0.474576	1.49254
0.813559	1.73134
0.949153	1.89552
1.01695	2.04478
2.0339	2.68657
3.05085	3.13433
4	3.46269
5.01695	3.74627
5.9661	3.98507
6.98305	4.20896
8	4.41791
9.01695	4.58209
10.0339	4.74627
10.9831	4.9403
11.9322	5.07463
12.9492	5.22388
14.0339	5.35821
15.0508	5.47761
16.0678	5.62687
17.0847	5.74627
18.1017	5.8806
19.0508	6
20.1356	6.10448
