Adsorption isotherm of Hydrogen on Zeolite 10X-Carbon-C70
DOI: 10.1021/am403810j
Adsorbate Hydrogen: InChIKey UFHFLCQGNIYNRP-UHFFFAOYSA-N
Temperature: 77 K
Tabular data in the source: 0
pressure (bar)	uptake (cm3(STP)/g)
1.34723	2.20614
2.14841	2.66892
3.08127	2.98486
4.08005	3.23788
4.94559	3.44876
6.07674	3.63893
7.00802	3.76589
7.93948	3.91385
9.00366	4.04095
10.0012	4.14698
11.0652	4.25309
12.0628	4.35912
12.9937	4.44409
14.0576	4.52919
14.9883	4.59316
15.9854	4.63621
17.1158	4.74238
18.0464	4.78535
19.1099	4.82846
20.0405	4.87143
