Adsorption isotherm of Nitrogen on Zeolite 10X-Carbon-C70S
DOI: 10.1021/am403810j
Adsorbate Nitrogen: InChIKey IJGRMHOSHXDMSA-UHFFFAOYSA-N
Temperature: 77 K
Tabular data in the source: 0
pressure (bar)	uptake (cm3(STP)/g)
0.000231108	42.1053
0.00118443	215.789
0.00167553	305.263
0.00751101	368.421
0.0186909	405.263
0.0298274	434.211
0.0409928	468.421
0.0686391	505.263
0.0907532	534.211
0.134866	571.053
0.167958	600
0.195503	618.421
0.245076	650
0.297378	678.947
0.346864	694.737
0.388117	710.526
0.443077	723.684
0.487089	742.105
0.542035	752.632
0.588747	763.158
0.63546	773.684
0.687676	786.842
0.734374	794.737
0.783817	802.632
0.830515	810.526
0.877242	823.684
0.926743	842.105
0.976315	873.684
