Adsorption isotherm of Nitrogen on Zeolite 10X-Carbon-C60-7S
DOI: 10.1021/am403810j
Adsorbate Nitrogen: InChIKey IJGRMHOSHXDMSA-UHFFFAOYSA-N
Temperature: 77 K
Tabular data in the source: 0
pressure (bar)	uptake (cm3(STP)/g)
0.00208256	118.438
0.00376296	310.557
0.00519921	47.4107
0.00606096	389.523
0.00623331	357.945
0.016761	429.084
0.0302186	463.403
0.0409905	489.807
0.0517623	516.21
0.0733922	553.228
0.0978515	571.848
0.133169	601.082
0.165757	630.294
0.198389	651.612
0.252837	675.739
0.301841	697.19
0.350875	713.378
0.389036	721.582
0.438084	735.139
0.48716	743.432
0.536237	751.726
0.58527	767.914
0.631661	768.291
0.677994	779.194
0.721584	792.706
0.776133	798.412
0.830639	812.013
0.874243	822.894
0.923305	833.819
0.961366	860.444
