Adsorption isotherm of Hydrogen on Zeolite 10X-Carbon-C70
DOI: 10.1021/am403810j
Adsorbate Hydrogen: InChIKey UFHFLCQGNIYNRP-UHFFFAOYSA-N
Temperature: 77 K
Tabular data in the source: 0
pressure (bar)	uptake (cm3(STP)/g)
0.27398	0.987164
0.34339	1.34419
0.345483	1.59616
0.613185	1.82742
0.880712	2.03767
0.948378	2.18472
1.41611	2.50017
1.95099	2.89969
3.01831	3.40474
4.01918	3.90973
5.08528	4.26781
6.01849	4.62574
7.01796	4.96275
8.01692	5.23676
9.08266	5.55284
10.0814	5.80586
11.0141	6.1008
12.0129	6.35382
13.0778	6.56491
14.1432	6.839
15.0752	7.04995
16.1402	7.28204
17.1392	7.55605
18.0712	7.767
19.2025	7.97817
20.1345	8.18912
