Adsorption isotherm of Nitrogen on Zeolite 10X
DOI: 10.1021/am403810j
Adsorbate Nitrogen: InChIKey IJGRMHOSHXDMSA-UHFFFAOYSA-N
Temperature: 77 K
Tabular data in the source: 0
pressure (bar)	uptake (cm3(STP)/g)
0.00269119	0.00269119
0.00538238	116.183
0.0242207	198.628
0.0403679	203.628
0.0645886	199.03
0.0807357	204.03
0.102265	204.244
0.139942	199.781
0.18031	209.861
0.217986	205.397
0.24759	205.692
0.304105	206.255
0.349855	211.549
0.395605	212.005
0.441355	212.461
0.487106	212.917
0.538238	218.265
0.583988	218.72
0.63243	219.203
0.680871	214.847
0.726622	224.98
0.777754	225.489
0.834269	226.052
0.874637	231.293
0.920387	231.749
0.963446	232.178
