Adsorption isotherm of Nitrogen on Zeolite 10X-Carbon-C60
DOI: 10.1021/am403810j
Adsorbate Nitrogen: InChIKey IJGRMHOSHXDMSA-UHFFFAOYSA-N
Temperature: 77 K
Tabular data in the source: 0
pressure (bar)	uptake (cm3(STP)/g)
0.00333127	217.269
0.00625419	285.323
0.0064118	342.915
0.00922009	369.085
0.0175375	408.33
0.0175805	424.036
0.0258693	452.81
0.0451118	484.172
0.0533863	507.71
0.0781022	539.057
0.100046	557.322
0.130235	588.654
0.168598	606.876
0.198751	625.119
0.253549	648.531
0.308332	666.708
0.357635	682.282
0.390504	692.665
0.439799	705.621
0.489095	718.577
0.538383	728.916
0.587672	739.254
0.636982	757.446
0.686277	770.402
0.73558	785.976
0.782139	798.94
0.834164	809.271
0.877994	824.859
0.927304	843.051
0.971147	863.875
