Adsorption isotherm of Toluene, Methyl ethyl ketone on ZSM-5 zeolite
DOI: 10.1021/es026206c
Article source: Table 2S
Adsorbate Toluene: InChIKey YXFVVABEGXRONW-UHFFFAOYSA-N
Adsorbate Methyl ethyl ketone: InChIKey ZWEHNKRNPOVVGH-UHFFFAOYSA-N
Kind: experiment
Temperature: 298 K
Tabular data in the source: 0
pressure (bar)	Toluene fraction	Toluene uptake (mmol/g)	Methyl ethyl ketone fraction	Methyl ethyl ketone uptake (mmol/g)	total uptake (mmol/g)
5.2e-05	0.76	0.2178	0.24	0.2222	0.44
9e-05	0.78	0.31059	0.22	0.31941	0.63
0.000229	0.792	0.40824	0.208	0.43176	0.84
0.000393	0.822	0.48177	0.178	0.52823	1.01
0.000736	0.84	0.52554	0.16	0.61446	1.14
0.00154	0.834	0.5355	0.166	0.7245	1.26
0.002356	0.848	0.45375	0.152	0.75625	1.21
0.003166	0.838	0.43344	0.162	0.82656	1.26
0.004061	0.822	0.41844	0.178	0.90156	1.32
