Adsorption isotherm of Methyl ethyl ketone on FAU Y Zeolite
DOI: 10.1021/es026206c
Article source: Table 1S
Adsorbate Methyl ethyl ketone: InChIKey ZWEHNKRNPOVVGH-UHFFFAOYSA-N
Kind: experiment
Temperature: 298 K
Tabular data in the source: 0
pressure (bar)	uptake (mmol/g)
2.6e-05	0.15
5e-05	0.14
0.000104	0.31
0.000192	0.45
0.000302	0.58
0.000383	0.86
0.000492	1.03
0.00055	1.21
0.000608	1.43
0.000653	1.56
0.000786	1.8
0.000863	1.98
0.000948	2.07
0.001059	2.13
0.001419	2.31
0.001657	2.4
0.002474	2.41
0.003648	2.64
0.006383	2.67
0.008867	2.65
