Adsorption isotherm of Methyl ethyl ketone on ZSM-5 zeolite
DOI: 10.1021/es026206c
Article source: Table 1S
Adsorbate Methyl ethyl ketone: InChIKey ZWEHNKRNPOVVGH-UHFFFAOYSA-N
Kind: experiment
Temperature: 298 K
Tabular data in the source: 0
pressure (bar)	uptake (mmol/g)
3e-06	0.17
6e-06	0.18
7e-06	0.23
8e-06	0.2
1e-05	0.21
1.3e-05	0.4
2.3e-05	0.52
2.9e-05	0.7
3.2e-05	0.66
3.9e-05	0.87
5.5e-05	1.05
6.6e-05	1.21
6.6e-05	1.05
9.3e-05	1.16
0.000131	1.34
0.000175	1.41
0.000357	1.49
0.000402	1.55
0.000652	1.65
0.000915	1.73
0.001051	1.74
0.001569	1.72
0.001842	1.74
0.002402	1.73
0.00295	1.76
