Adsorption isotherm of Toluene, Methyl ethyl ketone on FAU Y Zeolite
DOI: 10.1021/es026206c
Article source: Table 2S
Adsorbate Toluene: InChIKey YXFVVABEGXRONW-UHFFFAOYSA-N
Adsorbate Methyl ethyl ketone: InChIKey ZWEHNKRNPOVVGH-UHFFFAOYSA-N
Kind: experiment
Temperature: 298 K
Tabular data in the source: 0
pressure (bar)	Toluene fraction	Toluene uptake (mmol/g)	Methyl ethyl ketone fraction	Methyl ethyl ketone uptake (mmol/g)	total uptake (mmol/g)
3.6e-05	0.953	0.11011	0.047	0.01989	0.13
4.7e-05	0.947	0.1692	0.053	0.0308	0.2
5.8e-05	0.953	0.2115	0.047	0.0385	0.25
8.3e-05	0.942	0.39715	0.058	0.07285	0.47
0.000103	0.929	0.54144	0.071	0.09856	0.64
0.00011	0.911	0.66913	0.089	0.12087	0.79
0.000144	0.896	0.88935	0.104	0.16065	1.05
0.000157	0.895	1.07569	0.105	0.19431	1.27
0.000241	0.887	1.28744	0.113	0.23256	1.52
0.000306	0.895	1.34673	0.105	0.24327	1.59
0.000739	0.906	1.55296	0.094	0.28704	1.84
0.000989	0.916	1.5979	0.084	0.3021	1.9
0.001752	0.921	1.672	0.079	0.328	2
0.002585	0.922	1.72017	0.078	0.34983	2.07
0.003253	0.915	1.7388	0.085	0.3612	2.1
