Adsorption isotherm of 1,4-Dioxane, Methyl ethyl ketone on FAU Y Zeolite
DOI: 10.1021/es026206c
Article source: Table 2S
Adsorbate 1,4-Dioxane: InChIKey RYHBNJHYFVUHQT-UHFFFAOYSA-N
Adsorbate Methyl ethyl ketone: InChIKey ZWEHNKRNPOVVGH-UHFFFAOYSA-N
Kind: experiment
Temperature: 298 K
Tabular data in the source: 0
pressure (bar)	1,4-Dioxane fraction	1,4-Dioxane uptake (mmol/g)	Methyl ethyl ketone fraction	Methyl ethyl ketone uptake (mmol/g)	total uptake (mmol/g)
6e-05	0.174	0.04393	0.826	0.18607	0.23
0.000107	0.112	0.06912	0.888	0.29088	0.36
0.000157	0.144	0.08256	0.856	0.34744	0.43
0.00019	0.123	0.09408	0.877	0.39592	0.49
0.000221	0.103	0.10229	0.897	0.42771	0.53
0.000265	0.109	0.12028	0.891	0.49972	0.62
0.000318	0.11	0.13192	0.89	0.54808	0.68
0.000368	0.112	0.16575	0.888	0.68425	0.85
0.000428	0.109	0.20972	0.891	0.86028	1.07
0.000466	0.103	0.29596	0.897	1.21404	1.51
0.000473	0.118	0.2646	0.882	1.0854	1.35
0.000521	0.104	0.32536	0.896	1.33464	1.66
0.000603	0.11	0.36848	0.89	1.51152	1.88
0.000787	0.111	0.41944	0.889	1.72056	2.14
0.001055	0.102	0.4577	0.898	1.8423	2.3
0.001441	0.103	0.49245	0.897	1.95755	2.45
0.001992	0.106	0.5278	0.894	2.0722	2.6
0.002757	0.105	0.54441	0.895	2.08559	2.63
