Adsorption isotherm of 1,4-Dioxane, Toluene on FAU Y Zeolite
DOI: 10.1021/es026206c
Article source: Table 2S
Adsorbate 1,4-Dioxane: InChIKey RYHBNJHYFVUHQT-UHFFFAOYSA-N
Adsorbate Toluene: InChIKey YXFVVABEGXRONW-UHFFFAOYSA-N
Kind: experiment
Temperature: 298 K
Tabular data in the source: 0
pressure (bar)	1,4-Dioxane fraction	1,4-Dioxane uptake (mmol/g)	Toluene fraction	Toluene uptake (mmol/g)	total uptake (mmol/g)
4.2e-05	0.758	0.209	0.242	0.041	0.25
7.6e-05	0.786	0.31768	0.214	0.06232	0.38
0.000166	0.86	0.59976	0.14	0.12024	0.72
0.000215	0.881	0.79968	0.119	0.16032	0.96
0.000235	0.889	1.01626	0.111	0.20374	1.22
0.000257	0.888	1.11622	0.112	0.22378	1.34
0.000275	0.89	1.19119	0.11	0.23881	1.43
0.00047	0.881	1.61602	0.119	0.32398	1.94
0.000707	0.889	1.79496	0.111	0.36504	2.16
0.001326	0.902	1.88556	0.098	0.39444	2.28
0.00196	0.895	1.95525	0.105	0.41475	2.37
0.003279	0.884	1.96219	0.116	0.42781	2.39
