Adsorption isotherm of 1,4-Dioxane on FAU Y Zeolite
DOI: 10.1021/es026206c
Article source: Table 1S
Adsorbate 1,4-Dioxane: InChIKey RYHBNJHYFVUHQT-UHFFFAOYSA-N
Kind: experiment
Temperature: 298 K
Tabular data in the source: 0
pressure (bar)	uptake (mmol/g)
2.6e-05	0.15
7.1e-05	0.3
0.000117	0.45
0.000195	0.63
0.000233	0.78
0.000252	0.86
0.000257	0.94
0.000296	1.25
0.000308	1.36
0.000341	1.51
0.000372	1.76
0.000405	2
0.000465	2.2
0.000655	2.35
0.001183	2.45
0.001303	2.47
0.002467	2.51
