Adsorption isotherm of 1,4-Dioxane, Toluene on FAU Y Zeolite
DOI: 10.1021/es026206c
Article source: Table 2S
Adsorbate 1,4-Dioxane: InChIKey RYHBNJHYFVUHQT-UHFFFAOYSA-N
Adsorbate Toluene: InChIKey YXFVVABEGXRONW-UHFFFAOYSA-N
Kind: experiment
Temperature: 298 K
Tabular data in the source: 0
pressure (bar)	1,4-Dioxane fraction	1,4-Dioxane uptake (mmol/g)	Toluene fraction	Toluene uptake (mmol/g)	total uptake (mmol/g)
4.3e-05	0.274	0.0964	0.726	0.1036	0.2
8.7e-05	0.362	0.22172	0.638	0.23828	0.46
0.00013	0.461	0.33051	0.539	0.35949	0.69
0.000147	0.504	0.4293	0.496	0.4707	0.9
0.000168	0.518	0.52947	0.482	0.58053	1.11
0.000195	0.503	0.58671	0.497	0.64329	1.23
0.000289	0.537	0.75684	0.463	0.83316	1.59
0.000399	0.531	0.84252	0.469	0.92748	1.77
0.000691	0.514	0.91868	0.486	1.01132	1.93
0.001298	0.479	0.96078	0.521	1.04922	2.01
0.001856	0.469	0.9984	0.531	1.0816	2.08
0.00351	0.461	1.06964	0.539	1.14036	2.21
