Adsorption isotherm of Toluene, Methyl ethyl ketone on ZSM-5 zeolite
DOI: 10.1021/es026206c
Article source: Table 2S
Adsorbate Toluene: InChIKey YXFVVABEGXRONW-UHFFFAOYSA-N
Adsorbate Methyl ethyl ketone: InChIKey ZWEHNKRNPOVVGH-UHFFFAOYSA-N
Kind: experiment
Temperature: 298 K
Tabular data in the source: 0
pressure (bar)	Toluene fraction	Toluene uptake (mmol/g)	Methyl ethyl ketone fraction	Methyl ethyl ketone uptake (mmol/g)	total uptake (mmol/g)
3.7e-05	0.413	0.1029	0.587	0.5971	0.7
7.6e-05	0.355	0.12789	0.645	0.74211	0.87
0.000122	0.405	0.15729	0.595	0.91271	1.07
0.000161	0.352	0.15805	0.648	0.93195	1.09
0.000334	0.385	0.16029	0.615	1.00971	1.17
0.000458	0.364	0.18088	0.636	1.14912	1.33
0.000952	0.355	0.1736	0.645	1.2264	1.4
0.001081	0.386	0.16992	0.614	1.27008	1.44
0.001782	0.374	0.149	0.626	1.341	1.49
0.002393	0.377	0.11745	0.623	1.33255	1.45
0.002934	0.365	0.11096	0.635	1.40904	1.52
0.003069	0.36	0.11856	0.64	1.44144	1.56
0.003783	0.337	0.10362	0.663	1.46638	1.57
