Adsorption isotherm of 1,4-Dioxane, Methyl ethyl ketone on ZSM-5 zeolite
DOI: 10.1021/es026206c
Article source: Table 2S
Adsorbate 1,4-Dioxane: InChIKey RYHBNJHYFVUHQT-UHFFFAOYSA-N
Adsorbate Methyl ethyl ketone: InChIKey ZWEHNKRNPOVVGH-UHFFFAOYSA-N
Kind: experiment
Temperature: 298 K
Tabular data in the source: 0
pressure (bar)	1,4-Dioxane fraction	1,4-Dioxane uptake (mmol/g)	Methyl ethyl ketone fraction	Methyl ethyl ketone uptake (mmol/g)	total uptake (mmol/g)
3.4e-05	0.867	0.58558	0.133	0.08442	0.67
4.2e-05	0.862	0.69046	0.138	0.09954	0.79
6.6e-05	0.848	0.89148	0.152	0.12852	1.02
9.2e-05	0.853	0.97014	0.147	0.13986	1.11
0.000154	0.849	1.10124	0.151	0.15876	1.26
0.00034	0.849	1.26875	0.151	0.18125	1.45
0.000332	0.831	1.36656	0.169	0.19344	1.56
0.000575	0.846	1.4454	0.154	0.2046	1.65
0.000694	0.834	1.51721	0.166	0.21279	1.73
0.001097	0.841	1.54528	0.159	0.21472	1.76
0.001364	0.833	1.60857	0.167	0.22143	1.83
0.002318	0.83	1.65308	0.17	0.21692	1.87
0.00313	0.817	1.6929	0.183	0.2071	1.9
0.004976	0.816	1.65249	0.184	0.17751	1.83
