Adsorption isotherm of 1,4-Dioxane, Toluene on ZSM-5 zeolite
DOI: 10.1021/es026206c
Article source: Table 2S
Adsorbate 1,4-Dioxane: InChIKey RYHBNJHYFVUHQT-UHFFFAOYSA-N
Adsorbate Toluene: InChIKey YXFVVABEGXRONW-UHFFFAOYSA-N
Kind: experiment
Temperature: 298 K
Tabular data in the source: 0
pressure (bar)	1,4-Dioxane fraction	1,4-Dioxane uptake (mmol/g)	Toluene fraction	Toluene uptake (mmol/g)	total uptake (mmol/g)
5.7e-05	0.216	0.15411	0.784	0.17589	0.33
8.3e-05	0.217	0.2115	0.783	0.2385	0.45
0.00018	0.191	0.29512	0.809	0.32488	0.62
0.000436	0.165	0.4116	0.835	0.4284	0.84
0.000822	0.166	0.49784	0.834	0.48216	0.98
0.001246	0.18	0.54915	0.82	0.50085	1.05
0.001907	0.168	0.67158	0.832	0.55842	1.23
0.002417	0.192	0.73566	0.808	0.60434	1.34
0.003391	0.195	0.83376	0.805	0.60624	1.44
0.004338	0.193	0.8816	0.807	0.5684	1.45
0.005739	0.188	0.97888	0.812	0.54112	1.52
0.006978	0.184	1.06568	0.816	0.47432	1.54
