Adsorption isotherm of 1,4-Dioxane, Toluene on FAU Y Zeolite
DOI: 10.1021/es026206c
Article source: Table 2S
Adsorbate 1,4-Dioxane: InChIKey RYHBNJHYFVUHQT-UHFFFAOYSA-N
Adsorbate Toluene: InChIKey YXFVVABEGXRONW-UHFFFAOYSA-N
Kind: experiment
Temperature: 298 K
Tabular data in the source: 0
pressure (bar)	1,4-Dioxane fraction	1,4-Dioxane uptake (mmol/g)	Toluene fraction	Toluene uptake (mmol/g)	total uptake (mmol/g)
5.7e-05	0.05	0.0405	0.95	0.2295	0.27
8.6e-05	0.064	0.06946	0.936	0.39054	0.46
0.000104	0.083	0.11026	0.917	0.62974	0.74
0.000136	0.108	0.15794	0.892	0.90206	1.06
0.000162	0.112	0.18178	0.888	1.03822	1.22
0.000209	0.112	0.20413	0.888	1.16587	1.37
0.000336	0.102	0.237	0.898	1.343	1.58
0.000809	0.083	0.27566	0.917	1.51434	1.79
0.00142	0.07	0.29892	0.93	1.58108	1.88
0.001985	0.071	0.30668	0.929	1.56332	1.87
0.003231	0.068	0.346	0.932	1.654	2
