Adsorption isotherm of 1,4-Dioxane on ZSM-5 zeolite
DOI: 10.1021/es026206c
Article source: Table 1S
Adsorbate 1,4-Dioxane: InChIKey RYHBNJHYFVUHQT-UHFFFAOYSA-N
Kind: experiment
Temperature: 298 K
Tabular data in the source: 0
pressure (bar)	uptake (mmol/g)
7e-06	0.2
1e-05	0.37
1.6e-05	0.51
1.9e-05	0.55
2.4e-05	0.71
2.5e-05	0.6
3.3e-05	0.78
3.5e-05	0.66
5.3e-05	0.9
5.4e-05	0.93
6.1e-05	0.95
8.7e-05	1.11
0.000103	1.08
0.000113	1.16
0.000156	1.21
0.000158	1.24
0.000187	1.34
0.0003	1.47
0.000322	1.48
0.000535	1.65
0.00085	1.7
0.000915	1.73
0.001611	1.86
0.001877	1.86
0.002419	1.87
0.003148	1.9
0.004635	1.86
