Adsorption isotherm of Toluene, Methyl ethyl ketone on FAU Y Zeolite
DOI: 10.1021/es026206c
Article source: Table 2S
Adsorbate Toluene: InChIKey YXFVVABEGXRONW-UHFFFAOYSA-N
Adsorbate Methyl ethyl ketone: InChIKey ZWEHNKRNPOVVGH-UHFFFAOYSA-N
Kind: experiment
Temperature: 298 K
Tabular data in the source: 0
pressure (bar)	Toluene fraction	Toluene uptake (mmol/g)	Methyl ethyl ketone fraction	Methyl ethyl ketone uptake (mmol/g)	total uptake (mmol/g)
2e-05	0.356	0.02533	0.644	0.14467	0.17
5.5e-05	0.237	0.04321	0.763	0.24679	0.29
0.000129	0.172	0.07301	0.828	0.41699	0.49
0.000222	0.113	0.09945	0.887	0.55055	0.65
0.000367	0.08	0.1404	0.92	0.7596	0.9
0.000391	0.071	0.1922	0.929	1.0478	1.24
0.000542	0.061	0.2496	0.939	1.3504	1.6
0.000686	0.065	0.28731	0.935	1.54269	1.83
0.000999	0.06	0.31641	0.94	1.67359	1.99
0.001408	0.061	0.3483	0.939	1.8017	2.15
0.002228	0.063	0.37742	0.937	1.88258	2.26
0.00274	0.063	0.3978	0.937	1.9422	2.34
0.00393	0.065	0.43432	0.935	2.00568	2.44
