Adsorption isotherm of Toluene, Methyl ethyl ketone on ZSM-5 zeolite
DOI: 10.1021/es026206c
Article source: Table 2S
Adsorbate Toluene: InChIKey YXFVVABEGXRONW-UHFFFAOYSA-N
Adsorbate Methyl ethyl ketone: InChIKey ZWEHNKRNPOVVGH-UHFFFAOYSA-N
Kind: experiment
Temperature: 298 K
Tabular data in the source: 0
pressure (bar)	Toluene fraction	Toluene uptake (mmol/g)	Methyl ethyl ketone fraction	Methyl ethyl ketone uptake (mmol/g)	total uptake (mmol/g)
8.1e-05	0.969	0.40608	0.031	0.07392	0.48
0.000133	0.974	0.47264	0.026	0.08736	0.56
0.000169	0.973	0.53952	0.027	0.10048	0.64
0.000201	0.977	0.53888	0.023	0.10112	0.64
0.000244	0.977	0.60552	0.023	0.11448	0.72
0.000471	0.985	0.69222	0.015	0.13778	0.83
0.000889	0.988	0.792	0.012	0.168	0.96
0.001746	0.99	0.81204	0.01	0.19796	1.01
0.002557	0.991	0.77319	0.009	0.21681	0.99
0.003269	0.992	0.84039	0.008	0.24961	1.09
0.004127	0.991	0.81	0.009	0.27	1.08
