Adsorption isotherm of 1,4-Dioxane, Methyl ethyl ketone on ZSM-5 zeolite
DOI: 10.1021/es026206c
Article source: Table 2S
Adsorbate 1,4-Dioxane: InChIKey RYHBNJHYFVUHQT-UHFFFAOYSA-N
Adsorbate Methyl ethyl ketone: InChIKey ZWEHNKRNPOVVGH-UHFFFAOYSA-N
Kind: experiment
Temperature: 298 K
Tabular data in the source: 0
pressure (bar)	1,4-Dioxane fraction	1,4-Dioxane uptake (mmol/g)	Methyl ethyl ketone fraction	Methyl ethyl ketone uptake (mmol/g)	total uptake (mmol/g)
4.3e-05	0.471	0.1314	0.529	0.5986	0.73
4.4e-05	0.32	0.171	0.68	0.729	0.9
5.3e-05	0.359	0.18	0.641	0.82	1
6.8e-05	0.235	0.21177	0.765	0.95823	1.17
9.9e-05	0.231	0.23349	0.769	1.05651	1.29
0.000153	0.197	0.2534	0.803	1.1466	1.4
0.000257	0.163	0.28392	0.837	1.27608	1.56
0.000512	0.159	0.30378	0.841	1.35622	1.66
0.000748	0.142	0.3145	0.858	1.3855	1.7
0.000831	0.132	0.3219	0.868	1.4181	1.74
0.001127	0.124	0.33276	0.876	1.43724	1.77
0.001691	0.118	0.34933	0.882	1.46067	1.81
0.002254	0.117	0.36064	0.883	1.47936	1.84
0.003199	0.123	0.37185	0.877	1.47815	1.85
0.005583	0.105	0.4144	0.895	1.4356	1.85
