Adsorption isotherm of 1,4-Dioxane, Toluene on ZSM-5 zeolite
DOI: 10.1021/es026206c
Article source: Table 2S
Adsorbate 1,4-Dioxane: InChIKey RYHBNJHYFVUHQT-UHFFFAOYSA-N
Adsorbate Toluene: InChIKey YXFVVABEGXRONW-UHFFFAOYSA-N
Kind: experiment
Temperature: 298 K
Tabular data in the source: 0
pressure (bar)	1,4-Dioxane fraction	1,4-Dioxane uptake (mmol/g)	Toluene fraction	Toluene uptake (mmol/g)	total uptake (mmol/g)
5.1e-05	0.046	0.04002	0.954	0.24998	0.29
0.000114	0.03	0.05291	0.97	0.31709	0.37
0.000327	0.023	0.08584	0.977	0.49416	0.58
0.000675	0.019	0.10833	0.981	0.58167	0.69
0.001236	0.013	0.14365	0.987	0.70635	0.85
0.001897	0.013	0.16926	0.987	0.76074	0.93
0.002697	0.012	0.20475	0.988	0.84525	1.05
0.003435	0.01	0.22365	0.99	0.82635	1.05
0.004517	0.012	0.2541	0.988	0.8459	1.1
