Adsorption isotherm of 1,4-Dioxane, Methyl ethyl ketone on FAU Y Zeolite
DOI: 10.1021/es026206c
Article source: Table 2S
Adsorbate 1,4-Dioxane: InChIKey RYHBNJHYFVUHQT-UHFFFAOYSA-N
Adsorbate Methyl ethyl ketone: InChIKey ZWEHNKRNPOVVGH-UHFFFAOYSA-N
Kind: experiment
Temperature: 298 K
Tabular data in the source: 0
pressure (bar)	1,4-Dioxane fraction	1,4-Dioxane uptake (mmol/g)	Methyl ethyl ketone fraction	Methyl ethyl ketone uptake (mmol/g)	total uptake (mmol/g)
4.6e-05	0.798	0.21096	0.202	0.02904	0.24
0.000113	0.823	0.36039	0.177	0.04961	0.41
0.000141	0.833	0.3951	0.167	0.0549	0.45
0.000212	0.828	0.49224	0.172	0.06776	0.56
0.000249	0.833	0.57135	0.167	0.07865	0.65
0.000291	0.838	0.7032	0.162	0.0968	0.8
0.000344	0.845	0.86142	0.155	0.11858	0.98
0.000366	0.846	0.95811	0.154	0.13189	1.09
0.000392	0.849	1.07238	0.151	0.14762	1.22
0.000425	0.85	1.23939	0.15	0.17061	1.41
0.000455	0.848	1.57341	0.152	0.21659	1.79
0.000466	0.843	1.72284	0.157	0.23716	1.96
0.000583	0.841	1.96896	0.159	0.27104	2.24
0.000796	0.843	2.0504	0.157	0.2796	2.33
0.000951	0.844	2.156	0.156	0.294	2.45
0.001435	0.843	2.28697	0.157	0.30303	2.59
0.002906	0.853	2.27298	0.147	0.30702	2.58
0.003706	0.858	2.35761	0.142	0.31239	2.67
0.005093	0.862	2.34878	0.138	0.31122	2.66
