Adsorption isotherm of 1,4-Dioxane, Methyl ethyl ketone on ZSM-5 zeolite
DOI: 10.1021/es026206c
Article source: Table 2S
Adsorbate 1,4-Dioxane: InChIKey RYHBNJHYFVUHQT-UHFFFAOYSA-N
Adsorbate Methyl ethyl ketone: InChIKey ZWEHNKRNPOVVGH-UHFFFAOYSA-N
Kind: experiment
Temperature: 298 K
Tabular data in the source: 0
pressure (bar)	1,4-Dioxane fraction	1,4-Dioxane uptake (mmol/g)	Methyl ethyl ketone fraction	Methyl ethyl ketone uptake (mmol/g)	total uptake (mmol/g)
3.8e-05	0.552	0.40515	0.448	0.32485	0.73
4.1e-05	0.56	0.4884	0.44	0.3916	0.88
6.2e-05	0.511	0.54945	0.489	0.44055	0.99
7.7e-05	0.535	0.6105	0.465	0.4895	1.1
9.8e-05	0.51	0.7104	0.49	0.5696	1.28
0.000154	0.502	0.82288	0.498	0.65712	1.48
0.000323	0.501	0.87449	0.499	0.69551	1.57
0.000436	0.464	0.94471	0.536	0.74529	1.69
0.000597	0.47	0.952	0.53	0.748	1.7
0.000751	0.472	0.9537	0.528	0.7463	1.7
0.001056	0.456	1.0283	0.544	0.7917	1.82
0.001484	0.424	1.04468	0.576	0.77532	1.82
0.001839	0.431	1.07322	0.569	0.78678	1.86
0.002461	0.41	1.10732	0.59	0.77268	1.88
0.003185	0.421	1.08238	0.579	0.72762	1.81
