Adsorption isotherm of Toluene on FAU Y Zeolite
DOI: 10.1021/es026206c
Article source: Table 1S
Adsorbate Toluene: InChIKey YXFVVABEGXRONW-UHFFFAOYSA-N
Kind: experiment
Temperature: 298 K
Tabular data in the source: 0
pressure (bar)	uptake (mmol/g)
3.9e-05	0.12
4.2e-05	0.15
5.3e-05	0.18
7.9e-05	0.25
9.4e-05	0.36
0.000111	0.47
0.00012	0.64
0.000137	0.86
0.000138	1.02
0.00014	0.74
0.000142	1
0.000169	1.11
0.000175	1.25
0.000234	1.35
0.000276	1.46
0.000392	1.54
0.000533	1.6
0.000758	1.69
0.000822	1.69
0.001104	1.78
0.001725	1.82
0.002387	1.89
0.002814	1.88
0.003158	1.91
0.003824	1.94
