Adsorption isotherm of 1,4-Dioxane, Methyl ethyl ketone on FAU Y Zeolite
DOI: 10.1021/es026206c
Article source: Table 2S
Adsorbate 1,4-Dioxane: InChIKey RYHBNJHYFVUHQT-UHFFFAOYSA-N
Adsorbate Methyl ethyl ketone: InChIKey ZWEHNKRNPOVVGH-UHFFFAOYSA-N
Kind: experiment
Temperature: 298 K
Tabular data in the source: 0
pressure (bar)	1,4-Dioxane fraction	1,4-Dioxane uptake (mmol/g)	Methyl ethyl ketone fraction	Methyl ethyl ketone uptake (mmol/g)	total uptake (mmol/g)
4.8e-05	0.455	0.13464	0.545	0.10536	0.24
9.8e-05	0.441	0.19108	0.559	0.14892	0.34
0.000127	0.42	0.23042	0.58	0.17958	0.41
0.00018	0.423	0.27024	0.577	0.20976	0.48
0.000231	0.45	0.32654	0.55	0.25346	0.58
0.000254	0.415	0.35532	0.585	0.27468	0.63
0.000308	0.418	0.4181	0.582	0.3219	0.74
0.000324	0.435	0.44635	0.565	0.34365	0.79
0.000386	0.459	0.55935	0.541	0.43065	0.99
0.000395	0.442	0.61694	0.558	0.47306	1.09
0.000421	0.439	0.69174	0.561	0.52826	1.22
0.000454	0.437	0.7938	0.563	0.6062	1.4
0.000539	0.444	0.9639	0.556	0.7361	1.7
0.000582	0.443	1.09238	0.557	0.83762	1.93
0.000719	0.438	1.24173	0.562	0.94827	2.19
0.000948	0.435	1.37698	0.565	1.04302	2.42
0.001406	0.429	1.42926	0.571	1.06074	2.49
0.002115	0.416	1.54907	0.584	1.08093	2.63
0.003059	0.434	1.62482	0.566	1.11518	2.74
0.003961	0.416	1.56729	0.584	1.10271	2.67
