Adsorption isotherm of 1,4-Dioxane, Toluene on ZSM-5 zeolite
DOI: 10.1021/es026206c
Article source: Table 2S
Adsorbate 1,4-Dioxane: InChIKey RYHBNJHYFVUHQT-UHFFFAOYSA-N
Adsorbate Toluene: InChIKey YXFVVABEGXRONW-UHFFFAOYSA-N
Kind: experiment
Temperature: 298 K
Tabular data in the source: 0
pressure (bar)	1,4-Dioxane fraction	1,4-Dioxane uptake (mmol/g)	Toluene fraction	Toluene uptake (mmol/g)	total uptake (mmol/g)
2e-05	0.68	0.23954	0.32	0.05046	0.29
7.1e-05	0.694	0.38134	0.306	0.07866	0.46
0.000144	0.672	0.61494	0.328	0.12506	0.74
0.0002	0.651	0.78208	0.349	0.15792	0.94
0.000424	0.645	0.95418	0.355	0.18582	1.14
0.000782	0.631	1.1011	0.369	0.1989	1.3
0.001398	0.602	1.22106	0.398	0.18894	1.41
0.002135	0.607	1.3816	0.393	0.1884	1.57
0.002931	0.637	1.44744	0.363	0.18256	1.63
0.003712	0.632	1.54413	0.368	0.16587	1.71
0.004718	0.637	1.58814	0.363	0.14186	1.73
0.005631	0.615	1.7199	0.385	0.1001	1.82
