Adsorption isotherm of Toluene, Methyl ethyl ketone on FAU Y Zeolite
DOI: 10.1021/es026206c
Article source: Table 2S
Adsorbate Toluene: InChIKey YXFVVABEGXRONW-UHFFFAOYSA-N
Adsorbate Methyl ethyl ketone: InChIKey ZWEHNKRNPOVVGH-UHFFFAOYSA-N
Kind: experiment
Temperature: 298 K
Tabular data in the source: 0
pressure (bar)	Toluene fraction	Toluene uptake (mmol/g)	Methyl ethyl ketone fraction	Methyl ethyl ketone uptake (mmol/g)	total uptake (mmol/g)
1.4e-05	0.818	0.0501	0.182	0.0499	0.1
2.3e-05	0.797	0.075	0.203	0.075	0.15
2.9e-05	0.706	0.08	0.294	0.08	0.16
5.3e-05	0.634	0.155	0.366	0.155	0.31
9.5e-05	0.581	0.205	0.419	0.205	0.41
0.000153	0.414	0.32955	0.586	0.32045	0.65
0.000199	0.372	0.43265	0.628	0.41735	0.85
0.00023	0.314	0.5355	0.686	0.5145	1.05
0.000265	0.295	0.61831	0.705	0.59169	1.21
0.000342	0.297	0.7424	0.703	0.7076	1.45
0.000395	0.265	0.84645	0.735	0.80355	1.65
0.000519	0.291	0.91492	0.709	0.86508	1.78
0.0009	0.29	1.0296	0.71	0.9504	1.98
0.001436	0.309	1.12251	0.691	1.00749	2.13
0.002279	0.317	1.15885	0.683	0.99115	2.15
0.002945	0.334	1.18592	0.666	0.99408	2.18
0.003733	0.338	1.25856	0.662	1.02144	2.28
0.004536	0.351	1.28667	0.649	1.02333	2.31
