Adsorption isotherm of Toluene on ZSM-5 zeolite
DOI: 10.1021/es026206c
Article source: Table 1S
Adsorbate Toluene: InChIKey YXFVVABEGXRONW-UHFFFAOYSA-N
Kind: experiment
Temperature: 298 K
Tabular data in the source: 0
pressure (bar)	uptake (mmol/g)
1.4e-05	0.12
2.1e-05	0.14
2.7e-05	0.18
3.8e-05	0.21
3.9e-05	0.23
7e-05	0.3
9.5e-05	0.35
0.000182	0.43
0.000239	0.45
0.000284	0.52
0.000375	0.53
0.000567	0.6
0.000778	0.64
0.000787	0.66
0.001248	0.69
0.001523	0.71
0.001603	0.73
0.001874	0.75
0.002037	0.78
0.002241	0.73
0.002594	0.77
0.002996	0.79
0.003432	0.81
0.004708	0.8
0.005207	0.8
0.005411	0.84
0.006408	0.87
