Adsorption isotherm of Nitrogen on (Cu-BTCDTG-0.18)
DOI: 10.1016/j.jhazmat.2011.08.069
Adsorbate Nitrogen: InChIKey IJGRMHOSHXDMSA-UHFFFAOYSA-N
Temperature: 77 K
Tabular data in the source: 0
pressure (bar)	uptake (cm3(STP)/g)
0.0123058	226.41
0.0437689	232.846
0.0795225	236.421
0.106695	238.567
0.205375	242.142
0.278312	242.142
0.366981	239.282
0.471382	238.567
0.570062	236.421
0.668741	235.706
0.718796	234.991
0.767421	236.421
0.847509	238.567
0.929027	241.427
0.977652	245.002
0.994814	250.723
