Adsorption isotherm of Nitrogen on CuBTC
DOI: 10.1016/j.jhazmat.2011.08.069
Adsorbate Nitrogen: InChIKey IJGRMHOSHXDMSA-UHFFFAOYSA-N
Temperature: 77 K
Tabular data in the source: 0
pressure (bar)	uptake (cm3(STP)/g)
0.0123058	408.039
0.0380483	415.189
0.0695115	424.485
0.120997	436.641
0.205375	445.222
0.246849	448.083
0.402735	453.803
0.55004	458.094
0.703065	461.669
0.75312	462.384
0.797454	463.814
0.893274	468.82
0.923307	470.965
0.95191	474.54
0.969071	482.406
0.979082	491.702
0.984803	508.864
0.989093	529.601
