Adsorption isotherm of Nitrogen on (Cu-BTC-DTG-1.52)
DOI: 10.1016/j.jhazmat.2011.08.069
Adsorbate Nitrogen: InChIKey IJGRMHOSHXDMSA-UHFFFAOYSA-N
Temperature: 77 K
Tabular data in the source: 0
pressure (bar)	uptake (cm3(STP)/g)
0.0123058	21.8999
0.0494895	23.3301
0.0766622	23.3301
0.202515	24.0451
0.269731	24.0451
0.334088	24.0451
0.417036	23.3301
0.481393	24.0451
0.531448	23.3301
0.577212	23.3301
0.664451	22.615
0.745969	22.615
0.811756	24.0451
0.876112	24.0451
0.921877	26.1904
0.949049	28.3356
0.971932	32.626
0.991954	41.9219
