Adsorption isotherm of Nitrogen on (Cu-BTC-DTG-0.92)
DOI: 10.1016/j.jhazmat.2011.08.069
Adsorbate Nitrogen: InChIKey IJGRMHOSHXDMSA-UHFFFAOYSA-N
Temperature: 77 K
Tabular data in the source: 0
pressure (bar)	uptake (cm3(STP)/g)
0.0123058	91.9769
0.045199	96.2674
0.0738019	97.6975
0.202515	99.8427
0.248279	99.8427
0.329798	99.8427
0.397014	100.558
0.499985	100.558
0.597234	101.988
0.697344	101.273
0.75026	103.418
0.796024	103.418
0.868961	105.563
0.923307	108.424
0.946189	110.569
0.976222	116.289
0.997674	127.731
