Adsorption isotherm of Water on H0.34Na0.06Al0.4Si47.6O96
DOI: 10.1006/jcis.2000.7399
Adsorbate Water: InChIKey XLYOFNOQVPJJNP-UHFFFAOYSA-N
Temperature: 298 K
Tabular data in the source: 0
pressure (bar)	uptake (cm3(STP)/g)
0.115851	41.6471
0.149262	50.8235
0.170862	58.5882
0.186594	62.1176
0.221961	72.7059
0.241612	78.3529
0.265206	84
0.304524	93.8824
0.381258	107.294
0.459924	124.235
0.54844	141.882
0.634984	159.529
0.735312	178.588
0.831712	196.235
