Adsorption isotherm of Ammonia on K6Na6Al12O48
DOI: 10.1006/jcis.2000.7399
Adsorbate Ammonia: InChIKey QGZKDVFQNNGYKY-UHFFFAOYSA-N
Temperature: 298 K
Tabular data in the source: 0
pressure (bar)	uptake (cm3(STP)/g)
0.000492004	22.0339
0.00156884	22.7119
0.00236719	23.5593
0.00481329	24.2373
0.00890713	24.7458
0.0111026	24.5763
0.0135672	24.5763
0.0163011	24.7458
0.0187611	24.9153
0.0212304	24.7458
0.0239643	24.9153
0.0267028	24.9153
0.0294413	24.9153
0.0321799	24.9153
0.0346445	24.9153
0.037383	24.9153
0.0398431	25.0847
0.0423077	25.0847
0.0447724	25.0847
0.0475109	25.0847
0.0499709	25.2542
0.0527094	25.2542
0.0551741	25.2542
0.057908	25.4237
0.0606465	25.4237
0.0625634	25.4237
0.0650281	25.4237
0.0677666	25.4237
0.0705005	25.5932
0.0732436	25.4237
0.0757037	25.5932
0.0784422	25.5932
0.0811807	25.5932
0.0839192	25.5932
0.0866577	25.5932
0.0893962	25.5932
0.0921347	25.5932
0.0948732	25.5932
0.0973379	25.5932
