Adsorption isotherm of Ammonia on K6Na6Al12O48
DOI: 10.1006/jcis.2000.7399
Adsorbate Ammonia: InChIKey QGZKDVFQNNGYKY-UHFFFAOYSA-N
Temperature: 298 K
Tabular data in the source: 0
pressure (bar)	uptake (cm3(STP)/g)
0.000425922	66.0739
0.000670854	81.5516
0.000924457	92.2673
0.00173403	97.6292
0.00199197	105.964
0.00279938	112.516
0.0038864	115.499
0.00469706	120.266
0.00605611	123.845
0.00768719	128.021
0.00904624	131.601
0.0112279	133.399
0.0131331	136.982
0.0155879	138.782
0.0177695	140.581
0.0199501	142.974
0.0221328	144.178
0.0248606	145.979
0.0270423	147.778
0.0292261	148.386
0.031683	148.996
0.0344119	150.202
0.0368677	151.407
0.0395977	152.018
0.0420546	152.628
0.0439643	153.83
0.0469674	154.443
0.0494254	154.457
0.0521543	155.664
0.0546112	156.273
0.0573412	156.884
0.0600713	157.496
0.0622551	158.104
0.0649851	158.715
0.0677162	158.731
0.0701742	158.746
0.07263	159.95
0.0742676	160.555
0.0767245	161.165
0.0791825	161.179
0.0816383	162.384
0.0840963	162.399
0.0868263	163.01
0.0892832	163.62
0.0917401	164.229
0.0941981	164.244
0.0966561	164.258
