Adsorption isotherm of Water on Na0.21H3.49Mn12O23
DOI: 10.1006/jcis.2000.7399
Adsorbate Water: InChIKey XLYOFNOQVPJJNP-UHFFFAOYSA-N
Temperature: 298 K
Tabular data in the source: 0
pressure (bar)	uptake (cm3(STP)/g)
0.0156467	11.2941
0.0293608	19.0588
0.0608398	24.7059
0.10022	28.9412
0.153414	31.7647
0.204644	33.8824
0.279539	35.2941
0.348503	38.1176
0.441124	40.9412
0.537671	45.1765
0.638146	50.8235
0.714957	57.1765
0.777954	64.9412
0.827143	73.4118
0.866438	85.4118
0.897855	96.7059
