Adsorption isotherm of Ammonia on K6Na6Al12O48
DOI: 10.1006/jcis.2000.7399
Adsorbate Ammonia: InChIKey QGZKDVFQNNGYKY-UHFFFAOYSA-N
Temperature: 298 K
Tabular data in the source: 0
pressure (bar)	uptake (cm3(STP)/g)
0.000375641	74.3397
0.000696333	108.548
0.00126385	123.018
0.00209711	131.565
0.00265021	135.509
0.00402846	142.079
0.00513016	146.677
0.00705071	149.296
0.00870101	154.549
0.0106198	155.852
0.0125421	159.787
0.0150085	161.087
0.0172038	164.362
0.0218647	168.279
0.024605	169.577
0.0270723	171.535
0.0281668	170.87
0.0295378	172.177
0.0320034	172.819
0.0347437	174.117
0.0372092	174.758
0.0399495	176.056
0.0410449	176.049
0.0424142	176.04
0.0448806	177.34
0.0473461	177.982
0.0498117	178.624
0.0525511	179.264
0.0550175	180.564
0.0558382	179.901
0.0574821	180.548
0.0602215	181.188
0.0613178	181.839
0.0640572	182.479
0.0667957	182.461
0.0689883	183.763
0.0692613	183.103
0.0714529	183.747
0.0739185	184.388
0.0766579	185.029
0.0791234	185.67
0.0818619	185.653
0.0826835	185.647
0.0840527	185.638
0.0865182	186.28
0.0892585	187.578
0.091997	187.561
0.0947364	188.201
0.0969272	188.186
0.0972011	188.185
