Adsorption isotherm of Water on K6Na6Al12O48
DOI: 10.1006/jcis.2000.7399
Adsorbate Water: InChIKey XLYOFNOQVPJJNP-UHFFFAOYSA-N
Temperature: 298 K
Tabular data in the source: 0
pressure (bar)	uptake (cm3(STP)/g)
0.00527227	58.5882
0.00551965	216
0.00613037	160.235
0.00637775	137.647
0.00664059	113.647
0.00686477	93.1765
0.00708123	73.4118
0.00780791	187.059
0.0091453	244.941
0.0344553	273.882
0.103227	294.353
0.174078	304.941
0.223298	310.588
0.242988	312.706
0.306039	315.529
0.41242	321.882
0.532615	326.824
0.646928	328.941
0.755303	333.176
0.847923	336
