Adsorption isotherm of Nitrogen on Na0.21H3.49Mn12O23
DOI: 10.1006/jcis.2000.7399
Adsorbate Nitrogen: InChIKey IJGRMHOSHXDMSA-UHFFFAOYSA-N
Temperature: 77 K
Tabular data in the source: 0
pressure (bar)	uptake (cm3(STP)/g)
0.0158629	5.00488
0.0474729	5.62134
0.0869873	6.54846
0.114639	6.53992
0.134398	7.16003
0.171937	8.08777
0.227253	9.01001
0.280601	10.5591
0.329999	12.1094
0.436691	14.8944
0.515728	17.3749
0.539437	17.9938
0.555242	18.302
0.584888	19.8584
0.628369	22.0367
0.683703	24.5245
0.748918	27.3224
0.80031	30.4376
0.831943	32.9327
0.855664	34.491
0.87346	36.051
0.91103	39.4836
0.966418	46.355
