Adsorption isotherm of Water on HMn8O16
DOI: 10.1006/jcis.2000.7399
Adsorbate Water: InChIKey XLYOFNOQVPJJNP-UHFFFAOYSA-N
Temperature: 298 K
Tabular data in the source: 0
pressure (bar)	uptake (mmol/g)
0.0194657	22.5882
0.0410727	29.6471
0.0646819	33.8824
0.0725517	35.2941
0.0883144	36
0.159227	40.9412
0.17499	41.6471
0.251848	43.7647
0.263668	44.4706
0.279423	45.8824
0.35628	48
0.48242	50.1176
0.584905	52.2353
0.67751	56.4706
0.756308	61.4118
0.833112	68.4706
0.894083	81.1765
