Adsorption isotherm of Ammonia on H0.34Na0.06Al0.4Si47.6O96
DOI: 10.1006/jcis.2000.7399
Adsorbate Ammonia: InChIKey QGZKDVFQNNGYKY-UHFFFAOYSA-N
Temperature: 298 K
Tabular data in the source: 0
pressure (bar)	uptake (cm3(STP)/g)
0.00106101	17.2681
0.00132437	22.6268
0.00186517	25.6062
0.00213178	29.1792
0.00321663	33.3522
0.00565945	41.6999
0.00865066	48.8603
0.00973985	50.6525
0.0119204	53.0462
0.0138257	56.6288
0.0162804	58.429
0.0187341	60.8243
0.0209157	62.6229
0.0230984	63.8262
0.0258263	65.6279
0.028009	66.8312
0.0307379	68.0377
0.0331937	69.2426
0.0359238	69.8539
0.0381065	71.0572
0.0408354	72.2637
0.0432912	73.4686
0.045475	74.0767
0.0479319	74.6863
0.050662	75.2976
0.0531189	75.9073
0.0553016	77.1106
0.0577585	77.7203
0.0604885	78.3315
0.0632185	78.9428
0.0656765	78.9572
0.0681334	79.5669
0.0705903	80.1766
0.0733204	80.7879
0.0757773	81.3975
0.0785062	82.604
0.0809642	82.6185
0.0834211	83.2282
0.0858791	83.2426
0.088336	83.8523
0.091066	84.4635
0.0935229	85.0732
0.0959798	85.6829
