Adsorption isotherm of Ammonia on H0.34Na0.06Al0.4Si47.6O96
DOI: 10.1006/jcis.2000.7399
Adsorbate Ammonia: InChIKey QGZKDVFQNNGYKY-UHFFFAOYSA-N
Temperature: 298 K
Tabular data in the source: 0
pressure (bar)	uptake (cm3(STP)/g)
0.00133212	41.3559
0.00377822	42.0339
0.00623824	42.2034
0.00869826	42.3729
0.0111629	42.3729
0.0136183	42.7119
0.0163522	42.8814
0.0188168	42.8814
0.021003	43.0508
0.0237415	43.0508
0.0259277	43.2203
0.0286662	43.2203
0.0308524	43.3898
0.0335955	43.2203
0.0360555	43.3898
0.0387941	43.3898
0.0415326	43.3898
0.0442711	43.3898
0.0467311	43.5593
0.049465	43.7288
0.0522035	43.7288
0.054942	43.7288
0.0576805	43.7288
0.060419	43.7288
0.0631575	43.7288
0.0658961	43.7288
0.0686346	43.7288
0.0710992	43.7288
0.0735639	43.7288
0.0760239	43.8983
0.0787624	43.8983
0.0815009	43.8983
0.0842395	43.8983
0.0869733	44.0678
0.0897118	44.0678
0.0921719	44.2373
0.0949104	44.2373
