Adsorption isotherm of Nitrogen on H0.34Na0.06Al0.4Si47.6O96
DOI: 10.1006/jcis.2000.7399
Adsorbate Nitrogen: InChIKey IJGRMHOSHXDMSA-UHFFFAOYSA-N
Temperature: 77 K
Tabular data in the source: 0
pressure (bar)	uptake (cm3(STP)/g)
0.000688013	55.7336
0.00420925	20.9772
0.00526832	106.769
0.0351467	127.112
0.0667721	128.981
0.0904814	129.6
0.106295	130.535
0.149755	131.147
0.201124	132.384
0.260393	133.618
0.321638	134.852
0.388809	136.083
0.45795	137.001
0.49351	137.617
0.519199	138.548
0.53895	138.542
0.556734	139.163
0.576485	139.156
0.610075	140.085
0.663423	141.635
0.726642	142.867
0.785928	145.354
0.857059	147.524
