Adsorption isotherm of Nitrogen on K6Na6Al12O48
DOI: 10.1006/jcis.2000.7399
Adsorbate Nitrogen: InChIKey IJGRMHOSHXDMSA-UHFFFAOYSA-N
Temperature: 77 K
Tabular data in the source: 0
pressure (bar)	uptake (cm3(STP)/g)
0.0316061	0.303345
0.0454321	0.299072
0.106662	0.280151
0.183695	0.569458
0.235045	0.240479
0.343685	0.83313
0.481937	0.164185
0.539225	0.772705
0.588606	1.07056
0.60244	1.6925
0.634038	1.36963
0.657748	1.98853
0.69133	2.29126
0.782201	3.51562
0.875056	5.3656
