Adsorption isotherm of Ammonia on H0.34Na0.06Al0.4Si47.6O96
DOI: 10.1006/jcis.2000.7399
Adsorbate Ammonia: InChIKey QGZKDVFQNNGYKY-UHFFFAOYSA-N
Temperature: 298 K
Tabular data in the source: 0
pressure (bar)	uptake (cm3(STP)/g)
0.000623367	55.2591
0.000907125	62.4941
0.00146023	66.4379
0.00173858	69.7256
0.00256733	74.9833
0.00531934	84.8339
0.00833888	90.0774
0.0113584	95.321
0.0135537	98.5962
0.0160211	100.554
0.0184884	102.512
0.0209557	104.469
0.0234231	106.427
0.0261634	107.725
0.0286298	109.025
0.0310963	110.324
0.0335636	112.282
0.0360282	112.266
0.0382208	113.568
0.040962	115.524
0.0434276	116.165
0.046167	116.806
0.0491802	117.444
0.0519196	118.084
0.054386	119.384
0.0571254	120.024
0.059591	120.666
0.0620565	121.308
0.0645211	121.292
0.0672614	122.59
0.0697252	121.916
0.0724655	123.214
0.075204	123.196
0.0776695	123.838
0.0804098	125.136
0.0826006	125.122
0.0850661	125.763
0.0875308	125.747
0.0902702	126.388
0.0930104	127.686
0.0954751	127.67
0.0968434	127.003
