Adsorption isotherm of Nitrogen on HMn8O16
DOI: 10.1006/jcis.2000.7399
Adsorbate Nitrogen: InChIKey IJGRMHOSHXDMSA-UHFFFAOYSA-N
Temperature: 77 K
Tabular data in the source: 0
pressure (bar)	uptake (cm3(STP)/g)
0.00410102	12.2101
0.0179579	14.7107
0.0317839	14.7064
0.0436425	15.329
0.0594551	16.2634
0.10096	18.4424
0.154312	20.3046
0.215561	21.8512
0.268913	23.7134
0.332144	25.8856
0.397359	28.6835
0.460597	31.4819
0.523841	34.5935
0.58313	37.3932
0.646377	40.8179
0.709639	45.495
0.772917	51.4246
0.828302	57.9828
0.871844	65.1709
0.911466	74.8651
0.949149	87.3779
