Adsorption isotherm of Carbon Dioxide on Pre-ELM-11
DOI: 10.1021/La201008v
Adsorbate Carbon Dioxide: InChIKey CURLTUGMZLYLDI-UHFFFAOYSA-N
Temperature: 273 K
Tabular data in the source: 0
pressure (bar)	uptake (mg/g)
0.000826229	5.80535
0.00507064	18.8496
0.00719597	26.4045
0.0090071	37.0076
0.00959689	44.8408
0.00984011	71.7172
0.0105239	110.533
0.0114936	137.005
0.0122358	141.766
0.0134634	146.601
0.0163915	152.215
0.022232	158.281
0.0291085	159.346
