Adsorption isotherm of Carbon Dioxide on Pre-ELM-11
DOI: 10.1021/La201008v
Adsorbate Carbon Dioxide: InChIKey CURLTUGMZLYLDI-UHFFFAOYSA-N
Temperature: 273 K
Tabular data in the source: 0
pressure (bar)	uptake (mg/g)
0.00121507	0.704269
0.0059073	1.43081
0.00930826	2.98967
0.00979575	30.42
0.0102389	96.5531
0.0110004	134.348
0.0123371	148.491
0.0154269	154.131
0.0202001	154.87
0.0290913	153.666
