Adsorption isotherm of Carbon Dioxide on E-ELM-11
DOI: 10.1021/La201008v
Adsorbate Carbon Dioxide: InChIKey CURLTUGMZLYLDI-UHFFFAOYSA-N
Temperature: 453 K
Tabular data in the source: 0
pressure (bar)	uptake (mg/g)
0.00113293	2.15515
0.00554318	3.8635
0.00795146	5.24332
0.00837846	9.74416
0.00920217	53.6947
0.0097711	81.8496
0.010358	99.669
0.0121136	112.265
0.0137388	116.47
0.0177575	119.591
0.0224881	121.352
0.0292771	119.512
