Adsorption isotherm of Carbon Dioxide on Pre-ELM-11
DOI: 10.1021/La201008v
Adsorbate Carbon Dioxide: InChIKey CURLTUGMZLYLDI-UHFFFAOYSA-N
Temperature: 273 K
Tabular data in the source: 0
pressure (bar)	uptake (mg/g)
0.00121507	0.704269
0.00640993	7.18605
0.00764849	15.6359
0.00830352	98.318
0.0088453	116.982
0.00994241	132.12
0.0125469	137.685
0.016357	140.855
0.0222612	141.253
0.0290537	141.273
