Adsorption isotherm of Carbon Dioxide on Pre-ELM-11
DOI: 10.1021/La201008v
Adsorbate Carbon Dioxide: InChIKey CURLTUGMZLYLDI-UHFFFAOYSA-N
Temperature: 273 K
Tabular data in the source: 0
pressure (bar)	uptake (mg/g)
0.00170987	3.87766
0.00478722	5.38641
0.00601952	11.7708
0.00646526	52.0978
0.00724608	122.928
0.0093187	139.765
0.0122421	143.831
0.0164614	148.613
0.0222894	150.548
0.0290803	150.051
