Adsorption isotherm of Carbon Dioxide on ELM-11
DOI: 10.1021/La201008v
Adsorbate Carbon Dioxide: InChIKey CURLTUGMZLYLDI-UHFFFAOYSA-N
Temperature: 273 K
Tabular data in the source: 0
pressure (bar)	uptake (mg/g)
0.000806702	1.117
0.00240532	0.887027
0.00544832	1.38639
0.00825108	1.84633
0.00911396	12.3264
0.00952569	40.9478
0.00997881	76.4683
0.0103519	111.976
0.0109743	135.709
0.0124896	148.265
0.0153961	152.68
0.0228552	155.874
0.0296472	154.527
