Adsorption isotherm of Carbon Dioxide on E-ELM-11
DOI: 10.1021/La201008v
Adsorbate Carbon Dioxide: InChIKey CURLTUGMZLYLDI-UHFFFAOYSA-N
Temperature: 273 K
Tabular data in the source: 0
pressure (bar)	uptake (mg/g)
0.00114771	4.61911
0.00364494	7.49045
0.00513663	16.1045
0.0056755	65.916
0.00595392	85.654
0.00664433	120.721
0.00884785	127.975
0.0104701	131.687
0.0121636	133.935
0.0164938	135.63
0.0225798	136.628
0.0293005	136.747
