Adsorption isotherm of Carbon Dioxide on E-ELM-11
DOI: 10.1021/La201008v
Adsorbate Carbon Dioxide: InChIKey CURLTUGMZLYLDI-UHFFFAOYSA-N
Temperature: 273 K
Tabular data in the source: 0
pressure (bar)	uptake (mg/g)
0.00221623	3.49464
0.00512789	11.9461
0.00605827	25.0639
0.00665648	65.2644
0.00686355	103.795
0.00753629	122.309
0.00996122	129.081
0.0159116	134.065
0.022896	135.907
0.0294805	134.452
