Adsorption isotherm of Carbon Dioxide on Pre-ELM-11
DOI: 10.1021/La201008v
Adsorbate Carbon Dioxide: InChIKey CURLTUGMZLYLDI-UHFFFAOYSA-N
Temperature: 373 K
Tabular data in the source: 0
pressure (bar)	uptake (mg/g)
0.00152664	-0.376772
0.00755509	1.36191
0.00957138	3.20774
0.0103556	60.242
0.0107422	96.6229
0.0112908	127.598
0.0124357	145.078
0.0148636	152.392
0.0228966	153.806
0.0293827	151.797
