Adsorption isotherm of Carbon Dioxide on Pre-ELM-11
DOI: 10.1021/La201008v
Adsorbate Carbon Dioxide: InChIKey CURLTUGMZLYLDI-UHFFFAOYSA-N
Temperature: 373 K
Tabular data in the source: 0
pressure (bar)	uptake (mg/g)
0.00611822	0.663671
0.0101333	1.0992
0.0124364	2.97615
0.0144497	4.27929
0.0176971	4.08918
0.0243802	3.187
0.0285835	3.10059
