Adsorption isotherm of Carbon Dioxide on E-ELM-11
DOI: 10.1021/La201008v
Adsorbate Carbon Dioxide: InChIKey CURLTUGMZLYLDI-UHFFFAOYSA-N
Temperature: 393 K
Tabular data in the source: 0
pressure (bar)	uptake (mg/g)
0.00314377	3.96205
0.00542146	10.2435
0.00605864	36.4404
0.00625403	55.6725
0.00658864	84.7735
0.00722262	123.77
0.0084206	136.766
0.0101259	140.985
0.0123087	144.789
0.0166478	147.963
0.0225825	150.414
0.0293803	150.052
