Adsorption isotherm of Carbon Dioxide on Mg/K-SBA-15
DOI: 10.1016/j.micromeso.2012.05.026
Adsorbate Carbon Dioxide: InChIKey CURLTUGMZLYLDI-UHFFFAOYSA-N
Temperature: 333 K
Tabular data in the source: 0
pressure (bar)	uptake (cm3(STP)/g)
-0.000851	1.97962
0.0108153	2.68795
0.0308153	3.22962
0.0491486	3.68795
0.0908153	4.22962
0.139149	4.89628
0.212482	5.47962
0.285815	6.06295
0.370815	6.60462
0.472482	7.18795
0.539149	7.68795
0.604149	7.97962
0.672482	8.35462
0.744149	8.72962
0.807482	9.06295
0.882482	9.39628
0.947482	9.60462
1.00415	9.85462
