Adsorption isotherm of Nitrogen on Mg-MCM-48-ls
DOI: 10.1016/j.micromeso.2012.05.026
Adsorbate Nitrogen: InChIKey IJGRMHOSHXDMSA-UHFFFAOYSA-N
Temperature: 77 K
Tabular data in the source: 0
pressure (bar)	uptake (cm3(STP)/g)
0.0109559	88.096
0.0295276	103.263
0.0464109	114.929
0.0818659	124.263
0.117321	135.929
0.149399	144.096
0.206803	156.929
0.255764	165.096
0.287843	169.763
0.323298	175.596
0.372259	182.596
0.412779	188.429
0.449923	195.429
0.493819	204.763
0.542781	211.763
0.596808	223.429
0.645769	233.929
0.681224	247.929
0.721744	264.263
0.740316	287.596
0.755511	317.929
0.762264	354.096
0.774083	386.763
0.782524	401.929
0.785901	428.763
0.814603	441.596
0.850058	443.929
0.899019	448.596
0.929409	454.429
0.973306	462.596
0.991878	476.596
1.00032	488.263
