Adsorption isotherm of Nitrogen on MCM-48-ls
DOI: 10.1016/j.micromeso.2012.05.026
Adsorbate Nitrogen: InChIKey IJGRMHOSHXDMSA-UHFFFAOYSA-N
Temperature: 77 K
Tabular data in the source: 0
pressure (bar)	uptake (cm3(STP)/g)
0.00926756	131.263
0.0210859	155.763
0.0312159	169.763
0.0514759	183.763
0.0768009	200.096
0.119009	219.929
0.164594	233.929
0.215244	251.429
0.264206	264.263
0.309791	275.929
0.345246	285.263
0.397584	296.929
0.439793	308.596
0.476936	315.596
0.510703	323.763
0.556288	336.596
0.596808	347.096
0.627198	357.596
0.671094	371.596
0.691354	384.429
0.721744	401.929
0.743693	424.096
0.758888	474.263
0.770706	523.263
0.782524	567.596
0.787589	595.596
0.796031	643.429
0.802784	662.096
0.828109	673.763
0.866941	677.263
0.897331	680.763
0.931098	681.929
0.968241	685.429
0.996943	692.429
1.00707	693.596
