Adsorption isotherm of Carbon Dioxide on Mg-SBA-15
DOI: 10.1016/j.micromeso.2012.05.026
Adsorbate Carbon Dioxide: InChIKey CURLTUGMZLYLDI-UHFFFAOYSA-N
Temperature: 213 K
Tabular data in the source: 0
pressure (bar)	uptake (cm3(STP)/g)
0.0408153	0.450361
0.0708153	0.783694
0.104149	1.08369
0.137482	1.41703
0.199149	1.85036
0.274149	2.55036
0.337482	2.91703
0.415815	3.48369
0.487482	3.91703
0.554149	4.35036
0.632482	4.88369
0.734149	5.51703
0.802482	5.98369
0.877482	6.38369
0.945815	6.78369
1.00415	7.11703
