Adsorption isotherm of Carbon Dioxide on Mg-SBA-15
DOI: 10.1016/j.micromeso.2012.05.026
Adsorbate Carbon Dioxide: InChIKey CURLTUGMZLYLDI-UHFFFAOYSA-N
Temperature: 273 K
Tabular data in the source: 0
pressure (bar)	uptake (cm3(STP)/g)
0.022482	1.15036
0.047482	2.01703
0.0841486	2.91703
0.110815	3.81703
0.149149	4.65036
0.200815	5.81703
0.259149	7.01703
0.332482	8.35036
0.397482	9.48369
0.459149	10.617
0.524149	11.7504
0.595815	12.7504
0.675815	13.9504
0.737482	14.817
0.809149	15.6837
0.884149	16.6837
0.947482	17.4837
0.999149	18.0837
