Adsorption isotherm of Carbon Dioxide on SBA-15
DOI: 10.1016/j.micromeso.2012.05.026
Adsorbate Carbon Dioxide: InChIKey CURLTUGMZLYLDI-UHFFFAOYSA-N
Temperature: 293 K
Tabular data in the source: 0
pressure (bar)	uptake (cm3(STP)/g)
0.0108153	0.217027
0.0291486	0.617027
0.0641486	1.28369
0.0991486	1.95036
0.135815	2.68369
0.194149	3.85036
0.272482	5.01703
0.337482	6.21703
0.399149	7.31703
0.472482	8.41703
0.537482	9.48369
0.600815	10.4837
0.670815	11.4837
0.735815	12.4504
0.802482	13.4504
0.874149	14.517
0.937482	15.4504
1.00082	16.4837
