Adsorption isotherm of Carbon Dioxide on MCM-48-ls
DOI: 10.1016/j.micromeso.2012.05.026
Adsorbate Carbon Dioxide: InChIKey CURLTUGMZLYLDI-UHFFFAOYSA-N
Temperature: 293 K
Tabular data in the source: 0
pressure (bar)	uptake (cm3(STP)/g)
0.00914863	0.0836941
0.0308153	0.717027
0.0641486	1.48369
0.092482	2.18369
0.122482	2.88369
0.204149	4.68369
0.270815	6.15036
0.332482	7.55036
0.399149	8.91703
0.469149	10.217
0.537482	11.517
0.600815	12.7504
0.670815	14.0837
0.737482	15.3504
0.802482	16.3504
0.864149	17.6504
0.929149	18.8504
0.999149	20.1837
