Adsorption isotherm of Nitrogen on Mg/K-SBA-15
DOI: 10.1016/j.micromeso.2012.05.026
Adsorbate Nitrogen: InChIKey IJGRMHOSHXDMSA-UHFFFAOYSA-N
Temperature: 77 K
Tabular data in the source: 0
pressure (bar)	uptake (cm3(STP)/g)
0.0143326	39.096
0.0345926	47.2626
0.0616059	54.2626
0.102126	58.9293
0.144334	62.4293
0.206803	68.2626
0.277713	77.596
0.336804	79.9293
0.392519	85.7626
0.460053	93.9293
0.495508	98.596
0.551223	106.763
0.610314	118.429
0.650834	128.929
0.677848	148.763
0.701484	180.263
0.706549	212.929
0.718368	231.596
0.731874	254.929
0.765641	260.763
0.812914	265.429
0.880448	270.096
0.939539	273.596
0.961488	275.929
0.985124	273.596
1.00876	280.596
