Adsorption isotherm of Carbon Dioxide on SBA-16
DOI: 10.1016/j.micromeso.2012.05.026
Adsorbate Carbon Dioxide: InChIKey CURLTUGMZLYLDI-UHFFFAOYSA-N
Temperature: 293 K
Tabular data in the source: 0
pressure (bar)	uptake (cm3(STP)/g)
0.0141486	0.250361
0.0308153	0.717027
0.047482	1.25036
0.0658153	1.61703
0.0858153	2.08369
0.117482	2.78369
0.144149	3.38369
0.197482	4.68369
0.272482	6.28369
0.329149	7.68369
0.400815	9.05036
0.467482	10.4504
0.537482	11.8504
0.604149	13.217
0.669149	14.4837
0.735815	15.6837
0.799149	16.8837
0.870815	18.2504
0.950815	19.6504
0.999149	20.617
