Adsorption isotherm of Nitrogen on SBA-16
DOI: 10.1016/j.micromeso.2012.05.026
Adsorbate Nitrogen: InChIKey IJGRMHOSHXDMSA-UHFFFAOYSA-N
Temperature: 77 K
Tabular data in the source: 0
pressure (bar)	uptake (cm3(STP)/g)
0.00589089	102.381
0.0109559	116.965
0.0193976	132.715
0.0261509	140.881
0.0413459	150.798
0.0666709	163.048
0.0953726	175.298
0.130828	185.798
0.152776	191.631
0.181478	199.798
0.233816	210.881
0.286154	220.215
0.368883	234.215
0.433039	243.548
0.497196	252.881
0.564729	265.715
0.613691	276.798
0.632263	286.131
0.645769	296.631
0.666029	315.881
0.686289	326.381
0.706549	333.381
0.747069	333.965
0.826421	334.548
0.878759	336.298
0.934474	338.631
0.976683	341.548
1.00538	343.881
1.01214	345.631
