Adsorption isotherm of Carbon Dioxide on Mg-SBA-15
DOI: 10.1016/j.micromeso.2012.05.026
Adsorbate Carbon Dioxide: InChIKey CURLTUGMZLYLDI-UHFFFAOYSA-N
Temperature: 293 K
Tabular data in the source: 0
pressure (bar)	uptake (cm3(STP)/g)
0.0341486	0.783694
0.062482	1.38369
0.105815	1.91703
0.145815	2.58369
0.200815	3.35036
0.267482	4.15036
0.334149	4.95036
0.412482	5.85036
0.470815	6.48369
0.549149	7.31703
0.670815	8.55036
0.735815	9.11703
0.805815	9.75036
0.865815	10.317
0.930815	10.9504
1.00415	11.5504
