Adsorption isotherm of Carbon Dioxide on Mg-SBA-15
DOI: 10.1016/j.micromeso.2012.05.026
Adsorbate Carbon Dioxide: InChIKey CURLTUGMZLYLDI-UHFFFAOYSA-N
Temperature: 333 K
Tabular data in the source: 0
pressure (bar)	uptake (cm3(STP)/g)
0.0491486	0.250361
0.087482	0.583694
0.124149	0.850361
0.204149	1.11703
0.270815	1.41703
0.339149	1.68369
0.419149	2.05036
0.532482	2.51703
0.622482	2.88369
0.730815	3.28369
0.820815	3.68369
0.909149	4.05036
0.984149	4.28369
1.00248	4.35036
