Adsorption isotherm of Carbon Dioxide on Mg/K-MCM-48-ls
DOI: 10.1016/j.micromeso.2012.05.026
Adsorbate Carbon Dioxide: InChIKey CURLTUGMZLYLDI-UHFFFAOYSA-N
Temperature: 293 K
Tabular data in the source: 0
pressure (bar)	uptake (cm3(STP)/g)
0.012482	1.48369
0.032482	2.15036
0.0541486	2.75036
0.082482	3.31703
0.112482	3.98369
0.145815	4.48369
0.200815	5.25036
0.267482	6.11703
0.339149	6.91703
0.400815	7.58369
0.472482	8.35036
0.537482	8.95036
0.615815	9.65036
0.690815	10.2504
0.804149	11.217
0.872482	11.817
0.940815	12.3504
1.00248	12.8504
