Adsorption isotherm of Carbon Dioxide on Mg/K-SBA-15
DOI: 10.1016/j.micromeso.2012.05.026
Adsorbate Carbon Dioxide: InChIKey CURLTUGMZLYLDI-UHFFFAOYSA-N
Temperature: 273 K
Tabular data in the source: 0
pressure (bar)	uptake (cm3(STP)/g)
0.000815	4.60462
0.00748196	5.89628
0.0258153	7.02128
0.052482	8.47962
0.0791486	9.81295
0.110815	10.938
0.152482	12.063
0.195815	13.2713
0.262482	14.7296
0.327482	15.938
0.399149	17.1463
0.474149	18.2296
0.535815	19.188
0.634149	20.3963
0.730815	21.438
0.827482	22.4796
0.935815	23.688
1.00582	24.2713
