Adsorption isotherm of Nitrogen on Mg-SBA-15
DOI: 10.1016/j.micromeso.2012.05.026
Adsorbate Nitrogen: InChIKey IJGRMHOSHXDMSA-UHFFFAOYSA-N
Temperature: 77 K
Tabular data in the source: 0
pressure (bar)	uptake (cm3(STP)/g)
0.0126442	70.596
0.0261509	84.596
0.0531642	96.2626
0.0801776	104.429
0.110568	113.763
0.154464	119.596
0.186543	125.429
0.232128	132.429
0.272648	140.596
0.324986	146.429
0.379013	154.596
0.463429	169.763
0.512391	176.763
0.557976	187.263
0.603561	195.429
0.650834	207.096
0.689666	222.263
0.704861	236.263
0.713303	265.429
0.716679	298.096
0.728498	329.596
0.730186	352.929
0.755511	362.263
0.801096	364.596
0.858499	371.596
0.920968	376.263
0.951358	383.263
0.981748	399.596
0.995254	420.596
0.998631	431.096
