Adsorption isotherm of Nitrogen on Mg-SBA-16
DOI: 10.1016/j.micromeso.2012.05.026
Adsorbate Nitrogen: InChIKey IJGRMHOSHXDMSA-UHFFFAOYSA-N
Temperature: 77 K
Tabular data in the source: 0
pressure (bar)	uptake (cm3(STP)/g)
0.00251422	73.2146
0.0109559	84.8813
0.0261509	95.3813
0.0480992	105.881
0.0751126	114.048
0.125763	124.548
0.162906	130.381
0.203426	137.381
0.245634	143.798
0.286154	149.631
0.343558	157.215
0.409403	164.798
0.475248	171.215
0.524209	177.631
0.557976	182.881
0.601873	190.465
0.632263	199.215
0.652523	209.131
0.671094	223.715
0.711614	230.131
0.750446	231.881
0.802784	234.215
0.853434	237.131
0.909149	240.631
0.946293	244.715
0.973306	251.131
0.988501	261.048
1.00201	272.131
