Adsorption isotherm of Carbon Dioxide on Mg-SBA-16
DOI: 10.1016/j.micromeso.2012.05.026
Adsorbate Carbon Dioxide: InChIKey CURLTUGMZLYLDI-UHFFFAOYSA-N
Temperature: 293 K
Tabular data in the source: 0
pressure (bar)	uptake (cm3(STP)/g)
0.017482	0.783694
0.0508153	1.55036
0.0891486	2.55036
0.134149	3.68369
0.199149	5.21703
0.264149	6.35036
0.335815	7.48369
0.410815	8.71703
0.502482	10.1837
0.605815	11.6504
0.669149	12.5837
0.742482	13.417
0.812482	14.2504
0.862482	14.9837
0.940815	15.8504
0.999149	16.5837
