Adsorption isotherm of Carbon Dioxide on Mg/K-SBA-16
DOI: 10.1016/j.micromeso.2012.05.026
Adsorbate Carbon Dioxide: InChIKey CURLTUGMZLYLDI-UHFFFAOYSA-N
Temperature: 293 K
Tabular data in the source: 0
pressure (bar)	uptake (cm3(STP)/g)
0.0191486	1.11703
0.0358153	1.61703
0.0608153	2.05036
0.082482	2.51703
0.130815	3.28369
0.192482	4.05036
0.260815	4.71703
0.330815	5.35036
0.400815	5.98369
0.469149	6.55036
0.537482	7.11703
0.597482	7.55036
0.664149	8.05036
0.734149	8.51703
0.807482	8.95036
0.872482	9.38369
0.944149	9.85036
0.997482	10.2504
