Adsorption isotherm of Nitrogen on Mg/K-SBA-16
DOI: 10.1016/j.micromeso.2012.05.026
Adsorbate Nitrogen: InChIKey IJGRMHOSHXDMSA-UHFFFAOYSA-N
Temperature: 77 K
Tabular data in the source: 0
pressure (bar)	uptake (cm3(STP)/g)
0.00926756	41.7146
0.0329042	48.1313
0.0666709	55.7146
0.119009	62.7146
0.173036	69.1313
0.220309	74.9646
0.276024	80.798
0.377324	90.7146
0.414468	94.2146
0.473559	100.048
0.552911	107.048
0.600184	113.465
0.633951	123.381
0.645769	130.965
0.679536	143.215
0.742004	147.298
0.790966	147.881
0.836551	149.048
0.899019	150.798
0.931098	152.548
0.961488	157.215
0.978371	159.548
0.990189	166.548
1.00032	178.798
