Adsorption isotherm of Nitrogen on Mg/K-MCM-48-ls
DOI: 10.1016/j.micromeso.2012.05.026
Adsorbate Nitrogen: InChIKey IJGRMHOSHXDMSA-UHFFFAOYSA-N
Temperature: 77 K
Tabular data in the source: 0
pressure (bar)	uptake (cm3(STP)/g)
0.00420256	44.9293
0.0177092	56.596
0.0599176	67.096
0.0987492	72.9293
0.142646	79.9293
0.196673	86.9293
0.262518	95.096
0.306414	99.7626
0.363818	107.929
0.429663	117.263
0.485378	126.596
0.537716	131.263
0.583301	138.263
0.625509	147.596
0.671094	156.929
0.709926	169.763
0.731874	184.929
0.745381	202.429
0.757199	230.429
0.763953	258.429
0.779148	285.263
0.799408	312.096
0.829798	314.429
0.855123	315.596
0.897331	320.263
0.924344	321.429
0.961488	328.429
0.990189	335.429
1.00707	347.096
