Adsorption isotherm of Carbon Dioxide on Mg/K-SBA-15
DOI: 10.1016/j.micromeso.2012.05.026
Adsorbate Carbon Dioxide: InChIKey CURLTUGMZLYLDI-UHFFFAOYSA-N
Temperature: 313 K
Tabular data in the source: 0
pressure (bar)	uptake (cm3(STP)/g)
0.000815	2.97962
0.0258153	3.97962
0.0458153	4.77128
0.082482	5.52128
0.112482	6.02128
0.144149	6.52128
0.194149	7.14628
0.269149	7.89628
0.330815	8.56295
0.410815	9.35462
0.497482	10.1046
0.584149	10.6463
0.670815	11.3546
0.765815	11.8963
0.874149	12.6463
0.937482	12.938
1.00748	13.5213
