Adsorption isotherm of Carbon Dioxide on Mg/K-SBA-15
DOI: 10.1016/j.micromeso.2012.05.026
Adsorbate Carbon Dioxide: InChIKey CURLTUGMZLYLDI-UHFFFAOYSA-N
Temperature: 293 K
Tabular data in the source: 0
pressure (bar)	uptake (cm3(STP)/g)
0.000815	2.11703
0.00248196	3.25036
0.0108153	4.11703
0.0258153	5.11703
0.0358153	5.85036
0.067482	6.78369
0.102482	7.75036
0.139149	8.61703
0.205815	9.91703
0.270815	10.917
0.334149	11.917
0.407482	12.7837
0.472482	13.6837
0.535815	14.317
0.607482	15.1837
0.674149	15.7837
0.739149	16.417
0.807482	17.0837
0.875815	17.617
0.932482	18.2504
1.00415	18.817
