Adsorption isotherm of Carbon Dioxide on Mg-SBA-15
DOI: 10.1016/j.micromeso.2012.05.026
Adsorbate Carbon Dioxide: InChIKey CURLTUGMZLYLDI-UHFFFAOYSA-N
Temperature: 293 K
Tabular data in the source: 0
pressure (bar)	uptake (cm3(STP)/g)
0.0108153	0.217027
0.0341486	0.617027
0.0558153	1.01703
0.082482	1.48369
0.114149	1.95036
0.159149	2.55036
0.205815	3.21703
0.274149	4.11703
0.332482	4.88369
0.399149	5.75036
0.472482	6.55036
0.532482	7.21703
0.602482	8.05036
0.670815	8.85036
0.737482	9.55036
0.799149	10.0837
0.870815	10.8504
0.937482	11.617
1.00248	12.217
