Adsorption isotherm of Carbon Dioxide on Mg-MCM-48-ls
DOI: 10.1016/j.micromeso.2012.05.026
Adsorbate Carbon Dioxide: InChIKey CURLTUGMZLYLDI-UHFFFAOYSA-N
Temperature: 293 K
Tabular data in the source: 0
pressure (bar)	uptake (cm3(STP)/g)
0.0208153	0.783694
0.042482	1.55036
0.0691486	2.35036
0.114149	3.41703
0.145815	4.21703
0.197482	5.38369
0.272482	6.71703
0.339149	7.75036
0.409149	8.95036
0.484149	10.0837
0.575815	11.317
0.667482	12.617
0.732482	13.517
0.817482	14.517
0.897482	15.3837
0.985815	16.4504
1.00748	16.7504
