Adsorption isotherm of Carbon Dioxide on Mg/K-SBA-15
DOI: 10.1016/j.micromeso.2012.05.026
Adsorbate Carbon Dioxide: InChIKey CURLTUGMZLYLDI-UHFFFAOYSA-N
Temperature: 293 K
Tabular data in the source: 0
pressure (bar)	uptake (cm3(STP)/g)
0.00581529	4.02128
0.0158153	4.64628
0.027482	5.39628
0.0541486	6.43795
0.0758153	7.14628
0.115815	8.06295
0.169149	9.06295
0.270815	10.6463
0.377482	12.1046
0.470815	13.313
0.565815	14.2713
0.672482	15.3546
0.739149	15.8963
0.807482	16.563
0.874149	17.1463
0.939149	17.7713
1.00248	18.188
