Adsorption isotherm of Hydrogen on MCF-32
DOI: 10.1039/C0cc01106a
Adsorbate Hydrogen: InChIKey UFHFLCQGNIYNRP-UHFFFAOYSA-N
Temperature: 77 K
Tabular data in the source: 0
pressure (bar)	uptake (cm3(STP)/g)
0.00837971	1.24843
0.0149343	9.11397
0.0520772	30.9627
0.102329	45.3829
0.196279	61.9879
0.307707	77.282
0.416951	88.6434
0.51527	96.5089
0.615775	105.248
0.722834	113.114
0.814598	119.232
0.919472	124.475
1.01342	129.282
