Adsorption isotherm of Nitrogen on MCF-32
DOI: 10.1039/C0cc01106a
Adsorbate Nitrogen: InChIKey IJGRMHOSHXDMSA-UHFFFAOYSA-N
Temperature: 77 K
Tabular data in the source: 0
pressure (bar)	uptake (cm3(STP)/g)
0.00182509	110.929
0.00400996	9.98792
0.00400996	74.6602
0.00619484	38.3913
0.00837971	145.013
0.0193041	158.559
0.0761108	165.988
0.163506	169.047
0.309892	172.98
0.467203	174.29
0.620144	175.164
0.720649	175.601
0.816783	176.912
0.87359	178.223
0.923842	182.593
1.0025	202.694
