Adsorption isotherm of Carbon Dioxide on ZIF-71
DOI: 10.1021/Jp303790r
Adsorbate Carbon Dioxide: InChIKey CURLTUGMZLYLDI-UHFFFAOYSA-N
Temperature: 298 K
Tabular data in the source: 0
pressure (bar)	uptake (cm3(STP)/cm3)
0.21955	4.59513
0.2367	4.9932
0.252335	5.19066
0.267719	5.58912
0.28512	5.78619
0.30227	6.18425
0.31967	6.38132
0.335055	6.77978
0.352455	6.97685
0.36103	7.17588
0.378431	7.37294
0.393815	7.77141
0.411216	7.96847
0.419791	8.1675
0.437191	8.36457
0.459636	8.76145
0.477037	8.95852
0.492421	9.35698
0.509822	9.55404
0.520162	9.75268
0.537563	9.94975
0.552947	10.3482
0.570348	10.5453
0.584218	10.7431
0.601619	10.9402
0.61902	11.1373
0.625829	11.3367
0.64323	11.5337
0.658865	11.7312
0.676015	12.1293
0.69165	12.3267
0.709051	12.5238
0.717626	12.7228
0.735027	12.9199
0.757472	13.3168
0.774872	13.5138
0.792273	13.7109
0.799083	13.9103
0.816483	14.1074
0.833884	14.3045
0.84952	14.5019
0.866669	14.9
0.88407	15.0971
0.901471	15.2941
0.917106	15.4916
0.934256	15.8896
0.951656	16.0867
0.972587	16.283
0.987972	16.6814
1.00537	16.8785
