Adsorption isotherm of Carbon Dioxide on ZIF-78
DOI: 10.1021/Jp303790r
Adsorbate Carbon Dioxide: InChIKey CURLTUGMZLYLDI-UHFFFAOYSA-N
Temperature: 298 K
Tabular data in the source: 0
pressure (bar)	uptake (cm3(STP)/cm3)
0.168456	25.7062
0.347822	41.742
0.526932	56.5723
0.714848	67.1806
