Adsorption isotherm of Carbon Dioxide on ZIF-69
DOI: 10.1021/Jp303790r
Adsorbate Carbon Dioxide: InChIKey CURLTUGMZLYLDI-UHFFFAOYSA-N
Temperature: 298 K
Tabular data in the source: 0
pressure (bar)	uptake (cm3(STP)/cm3)
0.182519	13.0433
0.190843	13.4433
0.205725	14.2438
0.220606	15.0442
0.237253	15.8443
0.252386	16.4438
0.267268	17.2443
0.281899	18.2457
0.29678	19.0462
0.311662	19.8467
0.326544	20.6472
0.341426	21.4476
0.356308	22.2481
0.372703	23.2492
0.387585	24.0497
0.404483	24.6487
0.419365	25.4492
0.434247	26.2497
0.44938	26.8491
0.466027	27.6492
0.48116	28.2487
0.496041	29.0492
0.512688	29.8492
0.527821	30.4487
0.542703	31.2492
0.557585	32.0497
0.569188	32.6499
0.584823	32.8474
0.601721	33.4464
0.616854	34.0459
0.633753	34.645
0.648886	35.2445
0.664019	35.8439
0.680917	36.443
0.69605	37.0425
0.713199	37.4405
0.728332	38.04
0.761878	39.4392
0.777011	40.0386
0.793909	40.6377
0.809042	41.2372
0.82594	41.8362
0.841073	42.4357
0.857971	43.0348
0.873104	43.6342
0.890002	44.2333
0.908163	45.234
0.923296	45.8335
0.940195	46.4326
0.955579	46.831
0.972477	47.4301
0.98761	48.0296
1.00426	48.8296
