Adsorption isotherm of Carbon Dioxide on ZIF-69
DOI: 10.1021/Jp303790r
Adsorbate Carbon Dioxide: InChIKey CURLTUGMZLYLDI-UHFFFAOYSA-N
Temperature: 298 K
Tabular data in the source: 0
pressure (bar)	uptake (cm3(STP)/cm3)
0.182519	13.0433
0.370932	21.8429
0.558094	33.0543
0.751286	39.4415
