Adsorption isotherm of Carbon Dioxide on ZIF-68
DOI: 10.1021/Jp303790r
Adsorbate Carbon Dioxide: InChIKey CURLTUGMZLYLDI-UHFFFAOYSA-N
Temperature: 298 K
Tabular data in the source: 0
pressure (bar)	uptake (cm3(STP)/cm3)
0.20117	10.8287
0.236229	12.4284
0.271288	14.0282
0.301303	15.4281
0.339893	17.0271
0.373689	18.2252
0.515182	23.6193
0.572183	26.0179
0.631453	28.0142
0.687443	29.8102
0.73511	31.2062
0.775967	32.4028
0.819852	34.0006
0.871049	35.3958
0.90636	36.7946
0.952764	37.7889
0.991605	39.1869
1.01203	39.7852
