Adsorption isotherm of Carbon Dioxide on ZIF-8
DOI: 10.1021/Jp303790r
Adsorbate Carbon Dioxide: InChIKey CURLTUGMZLYLDI-UHFFFAOYSA-N
Temperature: 303 K
Tabular data in the source: 0
pressure (bar)	uptake (mmol/g)
1.00421	0.747224
3.05269	2.16958
5.12536	3.50017
10.5235	5.96252
