Adsorption isotherm of Carbon Dioxide on ZIF-78
DOI: 10.1021/Jp303790r
Adsorbate Carbon Dioxide: InChIKey CURLTUGMZLYLDI-UHFFFAOYSA-N
Temperature: 298 K
Tabular data in the source: 0
pressure (bar)	uptake (cm3(STP)/cm3)
0.179298	25.5028
0.264304	30.9094
0.341741	35.313
0.406061	38.9158
0.470633	42.3175
0.529399	44.7157
0.572782	46.7155
0.62827	48.9136
0.680478	50.9114
0.726129	52.5088
0.746306	53.3081
0.770265	53.9056
0.818183	55.1006
0.862571	56.2964
0.917298	57.6908
0.970009	59.2866
0.990438	59.8849
