Adsorption isotherm of Carbon Dioxide on ZIF-79
DOI: 10.1021/Jp303790r
Adsorbate Carbon Dioxide: InChIKey CURLTUGMZLYLDI-UHFFFAOYSA-N
Temperature: 298 K
Tabular data in the source: 0
pressure (bar)	uptake (cm3(STP)/cm3)
0.186578	8.06045
0.380071	15.1134
0.571069	21.3602
0.767382	26.1965
