Adsorption isotherm of Carbon Dioxide on ZIF-8
DOI: 10.1021/Jp303790r
Adsorbate Carbon Dioxide: InChIKey CURLTUGMZLYLDI-UHFFFAOYSA-N
Temperature: 303 K
Tabular data in the source: 0
pressure (bar)	uptake (mmol/g)
0.998779	0.563166
1.3073	0.83803
1.73592	1.11289
1.9799	1.26282
2.3626	1.52519
2.81928	1.84378
3.02329	1.93748
3.491	2.27481
3.8608	2.48721
4.27857	2.75583
4.67382	3.0057
5.62327	3.56167
6.54678	4.06143
7.68486	4.61115
8.98379	5.17337
10.0587	5.49821
