Adsorption isotherm of Carbon Dioxide on ZIF-71
DOI: 10.1021/Jp303790r
Adsorbate Carbon Dioxide: InChIKey CURLTUGMZLYLDI-UHFFFAOYSA-N
Temperature: 298 K
Tabular data in the source: 0
pressure (bar)	uptake (cm3(STP)/cm3)
0.152724	4.4091
0.496976	12.7721
0.84827	16.9136
0.984963	20.5001
