Adsorption isotherm of Carbon Dioxide on ZIF-25
DOI: 10.1021/Jp303790r
Adsorbate Carbon Dioxide: InChIKey CURLTUGMZLYLDI-UHFFFAOYSA-N
Temperature: 298 K
Tabular data in the source: 0
pressure (bar)	uptake (cm3(STP)/cm3)
0.14795	8.2282
0.488678	17.9986
0.837717	25.3558
0.977174	26.7313
