Adsorption isotherm of Carbon Dioxide on ZIF-79
DOI: 10.1021/Jp303790r
Adsorbate Carbon Dioxide: InChIKey CURLTUGMZLYLDI-UHFFFAOYSA-N
Temperature: 298 K
Tabular data in the source: 0
pressure (bar)	uptake (cm3(STP)/cm3)
0.187802	10.2288
0.377219	18.2245
0.56739	25.6171
0.76008	32.4063
