Adsorption isotherm of Carbon Dioxide on ZIF-71
DOI: 10.1021/Jp303790r
Adsorbate Carbon Dioxide: InChIKey CURLTUGMZLYLDI-UHFFFAOYSA-N
Temperature: 298 K
Tabular data in the source: 0
pressure (bar)	uptake (cm3(STP)/cm3)
0.159023	3.42569
0.226403	4.43325
0.307355	5.84383
0.369198	7.0529
0.43533	7.65743
0.49013	8.8665
0.546947	9.87406
0.609046	10.8816
0.682956	12.2922
0.743038	13.5013
0.784522	14.1058
0.829271	14.9118
0.8705	15.7179
0.917266	16.3224
0.954717	17.33
0.980613	17.733
