Adsorption isotherm of Carbon Dioxide on ZIF-25
DOI: 10.1021/Jp303790r
Adsorbate Carbon Dioxide: InChIKey CURLTUGMZLYLDI-UHFFFAOYSA-N
Temperature: 298 K
Tabular data in the source: 0
pressure (bar)	uptake (cm3(STP)/cm3)
0.210228	6.40575
0.275547	7.79781
0.33557	9.19105
0.399124	10.5835
0.450572	11.7777
0.492183	12.3713
0.536822	13.366
0.595582	14.3577
0.644003	15.1507
0.688893	15.9444
0.744123	16.9368
0.789264	17.5296
0.840964	18.5228
0.885854	19.3166
0.938056	19.9078
0.976137	20.5021
0.997068	20.6984
