Adsorption isotherm of Nitrogen on ZIF-8
DOI: 10.1021/Jp303790r
Adsorbate Nitrogen: InChIKey IJGRMHOSHXDMSA-UHFFFAOYSA-N
Temperature: 303 K
Tabular data in the source: 0
pressure (bar)	uptake (mmol/g)
1.00496	0.0884023
1.41929	0.163365
1.97178	0.219587
2.565	0.269562
3.25542	0.300797
3.92479	0.344525
4.78067	0.388253
5.16892	0.3945
6.11756	0.513191
7.15157	0.594401
8.3432	0.681857
9.28406	0.750573
9.91506	0.800548
