Adsorption isotherm of Carbon Dioxide on ZIF-81
DOI: 10.1021/Jp303790r
Adsorbate Carbon Dioxide: InChIKey CURLTUGMZLYLDI-UHFFFAOYSA-N
Temperature: 298 K
Tabular data in the source: 0
pressure (bar)	uptake (cm3(STP)/cm3)
0.188833	15.0513
0.215066	16.6531
0.229948	17.4535
0.244578	18.455
0.25946	19.2555
0.274342	20.056
0.289224	20.8564
0.304105	21.6569
0.320752	22.457
0.353795	24.2582
0.37347	25.4595
0.390368	26.0585
0.405501	26.658
0.420383	27.4585
0.431985	28.0587
0.447118	28.6582
0.453677	29.0586
0.46881	29.6581
0.485457	30.4582
0.490501	30.658
0.505634	31.2575
0.522532	31.8565
0.530856	32.2566
0.54624	32.655
0.591639	34.4534
0.63048	35.8514
0.645613	36.4509
0.67613	37.4488
0.691263	38.0483
0.704882	38.4471
0.720015	39.0466
0.777519	41.0433
0.792652	41.6427
0.824935	42.6403
0.840068	43.2397
0.851922	43.639
0.869071	44.037
0.897823	45.0354
0.941457	46.8342
0.98408	48.0303
