Adsorption isotherm of Carbon Dioxide on ZIF-8
DOI: 10.1021/Jp303790r
Adsorbate Carbon Dioxide: InChIKey CURLTUGMZLYLDI-UHFFFAOYSA-N
Temperature: 303 K
Tabular data in the source: 0
pressure (bar)	uptake (mmol/g)
0.996729	0.0821554
2.99855	0.200846
5.01203	0.31329
10.0381	0.600648
