Adsorption isotherm of Carbon Dioxide on ZIF-70
DOI: 10.1021/Jp303790r
Adsorbate Carbon Dioxide: InChIKey CURLTUGMZLYLDI-UHFFFAOYSA-N
Temperature: 298 K
Tabular data in the source: 0
pressure (bar)	uptake (cm3(STP)/cm3)
0.200146	7.41275
0.275302	9.40546
0.341883	11.1991
0.382741	12.3957
0.427128	13.5915
0.480091	14.9863
0.526495	15.9807
0.572899	16.9751
0.636201	18.5685
0.692945	19.7616
0.744645	20.7548
0.789032	21.9505
0.842749	22.7423
0.890667	23.9373
0.934043	24.5305
0.973386	25.5265
1.02357	26.319
