Adsorption isotherm of Carbon Dioxide on ZIF-81
DOI: 10.1021/Jp303790r
Adsorbate Carbon Dioxide: InChIKey CURLTUGMZLYLDI-UHFFFAOYSA-N
Temperature: 298 K
Tabular data in the source: 0
pressure (bar)	uptake (cm3(STP)/cm3)
0.177739	15.4557
0.36465	26.8681
0.550299	37.8788
0.741236	47.4817
