Adsorption isotherm of Carbon Dioxide on ZIF-68
DOI: 10.1021/Jp303790r
Adsorbate Carbon Dioxide: InChIKey CURLTUGMZLYLDI-UHFFFAOYSA-N
Temperature: 298 K
Tabular data in the source: 0
pressure (bar)	uptake (cm3(STP)/cm3)
0.186037	10.2292
0.375209	19.8325
0.565883	26.8231
0.756563	35.2204
