Adsorption isotherm of Carbon Dioxide on ZIF-78
DOI: 10.1021/Jp303790r
Adsorbate Carbon Dioxide: InChIKey CURLTUGMZLYLDI-UHFFFAOYSA-N
Temperature: 298 K
Tabular data in the source: 0
pressure (bar)	uptake (cm3(STP)/cm3)
0.180069	17.33
0.361582	31.0327
0.544924	41.9144
0.729736	54.4081
