Adsorption isotherm of Carbon Dioxide on ZIF-70
DOI: 10.1021/Jp303790r
Adsorbate Carbon Dioxide: InChIKey CURLTUGMZLYLDI-UHFFFAOYSA-N
Temperature: 298 K
Tabular data in the source: 0
pressure (bar)	uptake (cm3(STP)/cm3)
0.189555	7.41511
0.383752	12.9983
0.574413	17.1757
0.77265	23.7627
