Adsorption isotherm of Carbon Dioxide on ZIF-79
DOI: 10.1021/Jp303790r
Adsorbate Carbon Dioxide: InChIKey CURLTUGMZLYLDI-UHFFFAOYSA-N
Temperature: 298 K
Tabular data in the source: 0
pressure (bar)	uptake (cm3(STP)/cm3)
0.194869	11.6339
0.25515	14.2327
0.304331	15.8293
0.34292	17.4283
0.366879	18.0258
0.40219	19.4246
0.457929	21.4216
0.495004	22.82
0.525522	23.8179
0.554525	24.6152
0.583528	25.4126
0.626402	26.4077
0.67079	27.6035
0.698279	28.2002
0.742667	29.396
0.78201	30.392
0.828163	31.5873
0.879863	32.5805
0.927529	33.9765
0.974185	34.7699
1.01706	35.7651
