Adsorption isotherm of Nitrogen on {[Cu4(dpdo)12][H(H2O)27(CH3CN)12][PW12O40]3}n
DOI: 10.1016/j.inoche.2014.09.020
Adsorbate Nitrogen: InChIKey IJGRMHOSHXDMSA-UHFFFAOYSA-N
Temperature: 273 K
Tabular data in the source: 0
pressure (bar)	uptake (cm3(STP)/g)
0.0307045	-0.13923
0.0530351	-0.00707319
0.0809483	-0.0107959
0.103279	0.121361
0.131193	0.117638
0.156314	0.114288
0.181436	0.110937
0.206558	0.242722
0.23168	0.374507
0.254011	0.371529
0.276341	0.233415
0.304254	0.229693
0.332168	0.361105
0.360081	0.492517
0.382411	0.489539
0.404742	0.486561
0.432655	0.482838
0.457777	0.614623
0.480107	0.74678
0.502438	0.743802
0.52756	0.740451
0.555473	0.871864
0.580595	0.868513
0.608508	0.999926
0.630839	0.996947
0.655961	0.993597
0.681082	1.12538
0.700622	1.25791
0.725743	1.3897
0.753657	1.38597
0.775987	1.51813
0.8039	1.51441
0.829023	1.51106
0.854144	1.64284
0.876475	1.775
0.901597	1.77165
0.932301	1.76755
0.943466	2.17147
0.951841	2.03522
0.979754	2.03149
0.99371	2.2999
1.00488	2.16328
