Adsorption isotherm of Carbon Dioxide on {[Cu4(dpdo)12][H(H2O)27(CH3CN)12][PW12O40]3}n
DOI: 10.1016/j.inoche.2014.09.020
Adsorbate Carbon Dioxide: InChIKey CURLTUGMZLYLDI-UHFFFAOYSA-N
Temperature: 273 K
Tabular data in the source: 0
pressure (bar)	uptake (cm3(STP)/g)
0.0251219	1.348
0.0418698	2.69712
0.0530351	3.37131
0.069783	4.45015
0.078157	5.12471
0.0949049	6.33869
0.103279	6.87812
0.128401	8.49639
0.156314	10.1143
0.178645	11.4627
0.20935	13.2153
0.228888	14.1587
0.254011	15.3715
0.276341	16.0442
0.307045	17.3915
0.329376	18.3345
0.354498	19.1419
0.374037	19.815
0.40195	20.7572
0.429863	21.4292
0.454986	22.2366
0.480107	23.1792
0.502438	23.4465
0.52756	24.3891
0.552682	24.7912
0.575012	25.1936
0.597343	25.596
0.625256	26.268
0.650378	26.5349
0.678291	27.2068
0.703413	27.6089
0.725743	28.1465
0.753657	28.5481
0.775987	28.8154
0.8039	29.4874
0.829023	29.8894
0.851353	30.427
0.879267	30.8287
0.904388	31.3659
0.932301	31.9027
0.954632	32.3051
0.988128	33.1115
1.00208	33.2447
