Adsorption isotherm of Carbon Dioxide on {[Cu4(dpdo)12][H(H2O)27(CH3CN)12][PW12O40]3}n
DOI: 10.1016/j.inoche.2014.09.020
Adsorbate Carbon Dioxide: InChIKey CURLTUGMZLYLDI-UHFFFAOYSA-N
Temperature: 296 K
Tabular data in the source: 0
pressure (bar)	uptake (cm3(STP)/g)
0.0279132	0.536818
0.0558264	1.61418
0.0725743	2.28762
0.103279	2.9592
0.131193	3.90142
0.153523	4.57412
0.181436	5.24607
0.200975	6.05428
0.23168	6.72586
0.254011	7.39856
0.281924	8.20564
0.304254	8.74321
0.332168	9.55029
0.354498	10.223
0.37962	11.0305
0.404742	11.4325
0.429863	12.24
0.454986	12.5069
0.480107	13.4495
0.50523	13.7164
0.52756	14.254
0.555473	14.6556
0.577804	15.0581
0.600135	15.3254
0.628048	15.8622
0.650378	16.2646
0.678291	16.8014
0.703413	17.3386
0.725743	17.8762
0.753657	18.413
0.775987	18.9506
0.80111	19.4878
0.826231	20.0249
0.854144	20.2915
0.879267	21.099
0.904388	21.3659
0.926719	21.9034
0.951841	22.4406
0.979754	22.7072
1.00488	23.2444
