Adsorption isotherm of Carbon monoxide on {[Cu4(dpdo)12][H(H2O)27(CH3CN)12][PW12O40]3}n
DOI: 10.1016/j.inoche.2014.09.020
Adsorbate Carbon monoxide: InChIKey UGFAIRIUMAVXCW-UHFFFAOYSA-N
Temperature: 273 K
Tabular data in the source: 0
pressure (bar)	uptake (cm3(STP)/g)
0.0307045	-0.13923
0.0530351	-0.00707319
0.0809483	-0.0107959
0.103279	0.121361
0.131193	0.117638
0.156314	0.114288
0.181436	0.110937
0.206558	0.242722
0.23168	0.374507
0.254011	0.371529
0.276341	0.233415
0.304254	0.229693
0.332168	0.361105
0.360081	0.492517
0.382411	0.489539
0.404742	0.486561
0.432655	0.482838
0.457777	0.614623
0.480107	0.74678
0.502438	0.743802
0.52756	0.740451
0.555473	0.871864
0.580595	0.868513
0.608508	0.999926
0.630839	1.13208
0.655961	1.12873
0.678291	1.12575
0.708996	1.25679
0.731326	1.25382
0.756448	1.52074
0.78157	1.51739
0.809483	1.6488
0.834605	1.64545
0.859727	1.91237
0.879267	1.77463
0.898805	2.04229
0.92951	2.0382
0.957424	2.03447
0.982545	2.30139
0.996502	2.29953
