Adsorption isotherm of N-Butane on Y-fum-fcu-MOF
DOI: 10.1002/anie.201506345
Article source: Figure S20a
Adsorbate N-Butane: InChIKey IJDNQMDRQITEOD-UHFFFAOYSA-N
Kind: experiment
Temperature: 298 K
Tabular data in the source: 0
pressure (bar)	uptake (mmol/g)
0.002264	1.69851
0.004529	1.2971
0.006793	1.37855
0.009058	1.41613
0.011322	1.51012
0.02491	1.64163
0.038496	1.70421
0.049819	1.74174
0.063406	1.79806
0.06567	1.77925
0.072464	1.80427
0.09058	1.82297
0.104167	1.84169
0.115489	1.85415
0.122283	1.90424
0.131341	1.87286
0.18116	1.96656
0.197012	1.91007
0.24683	2.00377
0.264946	1.93474
0.314765	2.02844
0.330617	1.95315
0.380435	2.04058
0.396287	1.97783
0.446106	2.059
0.464222	1.99623
0.514042	2.06487
0.532158	2.00836
0.579712	2.07075
0.597828	2.02051
0.647647	2.07661
0.665763	2.03264
0.713317	2.08249
0.731433	2.04479
0.781252	2.08209
0.801633	2.05064
0.849187	2.08169
0.865038	2.0628
0.930709	2.06868
0.932974	2.08747
0.998645	2.08082
