Adsorption isotherm of N-propane on Tb-fum-fcu-MOF
DOI: 10.1002/anie.201506345
Article source: Figure S20b
Adsorbate N-propane: InChIKey ATUOYWHBWRKTHZ-UHFFFAOYSA-N
Kind: experiment
Temperature: 298 K
Tabular data in the source: 0
pressure (bar)	uptake (mmol/g)
0.012595	0.776331
0.026015	0.974768
0.039583	1.0697
0.050929	1.1215
0.062268	1.17761
0.064564	1.16899
0.078212	1.20786
0.091879	1.23379
0.107829	1.25974
0.119217	1.28134
0.121471	1.30292
0.132896	1.29865
0.178463	1.37646
0.246924	1.41555
0.262917	1.41131
0.310824	1.45031
0.331397	1.43746
0.397586	1.46791
0.447782	1.50262
0.461517	1.48111
0.511713	1.51582
0.530015	1.49433
0.580204	1.53334
0.598512	1.50754
0.646431	1.53792
0.664733	1.51643
0.714935	1.54683
0.730941	1.53395
0.781161	1.55141
0.797166	1.53853
0.847388	1.55599
0.863388	1.54743
0.931885	1.56064
0.998111	1.56522
