Adsorption isotherm of Argon on Tb-fmu-fcu MOF
DOI: 10.1002/anie.201506345
Article source: Figure S18a
Adsorbate Argon: InChIKey XKRFYHLGVUSROY-UHFFFAOYSA-N
Kind: experiment
Temperature: 87 K
Tabular data in the source: 0
pressure (bar)	uptake (cm3(STP)/g)
0	82.2342
0	90.2789
0	94.7482
0	96.9829
0	98.3236
0	99.6644
0	101.452
0	102.793
0	109.497
0.000115	8.9386
0.000241	18.7711
0.00035	27.2627
0.000471	36.6483
0.000591	46.0338
0.000706	54.9724
0.000821	63.911
0.000941	73.2965
0.001079	84.0229
0.001349	105.029
0.00136	105.922
0.001383	107.71
0.001429	111.286
0.001441	112.179
0.001452	113.073
0.00147	114.414
0.001493	116.202
0.003565	117.544
0.003582	118.884
0.005654	120.226
0.007727	121.568
0.007744	122.909
0.00775	123.356
0.009816	124.251
0.011883	125.145
0.013955	126.487
0.020149	128.725
0.026343	130.962
0.032537	133.2
0.042841	135.44
0.055189	136.786
0.057261	138.128
0.07373	140.371
0.075768	139.031
0.094293	141.274
0.098426	143.064
0.112805	142.624
0.127237	146.206
0.133373	143.975
0.15188	144.877
0.170394	146.227
0.172489	149.356
0.188895	146.683
0.219784	151.614
0.236179	148.046
0.265019	153.423
0.281408	149.409
0.312297	154.34
0.328692	150.772
0.357527	155.702
0.373916	151.687
0.404804	156.618
0.421194	152.604
0.452077	157.088
0.468466	153.074
0.497295	157.557
0.515745	153.99
0.544567	158.026
0.560962	154.459
0.59184	158.496
0.608235	154.928
0.639107	158.518
0.655507	155.398
0.684324	158.987
0.700731	156.313
0.748003	156.783
0.754197	159.02
0.778864	159.479
0.795275	157.252
0.824075	159.501
0.840487	157.274
0.848736	159.513
0.871342	159.524
0.887777	159.084
0.900118	159.984
0.910389	159.542
0.922736	160.889
0.928913	161.786
0.933028	162.235
