Adsorption isotherm of Argon on Y-fmu-fcu MOF
DOI: 10.1002/anie.201506345
Article source: Figure S17a
Adsorbate Argon: InChIKey XKRFYHLGVUSROY-UHFFFAOYSA-N
Kind: experiment
Temperature: 87 K
Tabular data in the source: 0
pressure (bar)	uptake (cm3(STP)/g)
0	17.9199
0	37.1198
0	46.0797
0	55.6796
0	64.6396
0	73.5995
0	83.1995
0	92.1594
0.000703	163.84
0.000721	161.92
0.000756	158.081
0.000774	156.161
0.00081	152.321
0.000833	149.761
0.000869	145.921
0.000892	143.361
0.000916	140.801
0.000951	136.961
0.000993	132.481
0.00104	127.361
0.001093	121.601
0.001123	118.401
0.001182	112.001
0.001276	101.761
0.001962	27.5213
0.002133	8.96146
0.002902	165.762
0.005106	167.044
0.007293	170.245
0.009491	172.167
0.011689	174.088
0.013888	176.01
0.016092	177.291
0.024915	181.777
0.03154	184.342
0.042597	186.909
0.053666	188.197
0.05587	189.478
0.071366	191.409
0.073588	190.77
0.093498	194.624
0.093516	192.704
0.111232	193.996
0.124494	197.845
0.13116	195.93
0.148871	197.862
0.166595	198.514
0.168793	200.436
0.186528	199.808
0.215308	203.028
0.230833	201.758
0.261823	205.62
0.279571	203.712
0.308344	207.572
0.323882	205.022
0.354871	208.883
0.372624	206.336
0.401392	210.835
0.416935	207.646
0.44792	212.147
0.465685	208.319
0.494453	212.819
0.512217	208.991
0.540986	213.491
0.558745	210.303
0.587518	214.163
0.603056	211.614
0.634046	215.475
0.649595	211.646
0.680579	216.147
0.698337	212.959
0.744871	213.631
0.749274	216.834
0.791403	214.303
0.795813	216.866
0.82019	216.883
0.837937	214.975
0.866722	217.555
0.882253	215.645
0.891094	218.211
0.906619	216.942
0.9177	216.95
0.919898	218.871
0.928762	218.877
