Adsorption isotherm of N-Butane on Tb-fum-fcu-MOF
DOI: 10.1002/anie.201506345
Article source: Figure S20b
Adsorbate N-Butane: InChIKey IJDNQMDRQITEOD-UHFFFAOYSA-N
Kind: experiment
Temperature: 298 K
Tabular data in the source: 0
pressure (bar)	uptake (mmol/g)
0.00988	1.07821
0.025738	1.16884
0.041652	1.22065
0.05075	1.24657
0.059799	1.30698
0.066707	1.26819
0.078095	1.2898
0.098625	1.30714
0.107743	1.32011
0.11915	1.32878
0.12136	1.38054
0.132841	1.33746
0.180685	1.4196
0.196752	1.3636
0.246881	1.44574
0.262954	1.38543
0.313082	1.46757
0.329169	1.39864
0.379297	1.48078
0.39537	1.42047
0.445517	1.48967
0.463869	1.43368
0.516306	1.49858
0.532372	1.44258
0.582525	1.50748
0.616864	1.45155
0.646468	1.51205
0.66709	1.46469
0.714984	1.51232
0.73331	1.47359
0.778933	1.51258
0.801809	1.4868
0.847444	1.51717
0.865751	1.49137
0.931941	1.52183
0.931971	1.50026
0.998186	1.51347
