Adsorption isotherm of Methane on Y-fum-fcu-MOF
DOI: 10.1002/anie.201506345
Article source: Figure S20a
Adsorbate Methane: InChIKey VNWKTOKETHGBQD-UHFFFAOYSA-N
Kind: experiment
Temperature: 298 K
Tabular data in the source: 0
pressure (bar)	uptake (mmol/g)
0.006793	0.012493
0.015851	0.012439
0.02491	0.024919
0.038496	0.037372
0.054348	0.043545
0.063406	0.049758
0.074729	0.055958
0.09058	0.074664
0.097373	0.074624
0.108696	0.08709
0.122283	0.093276
0.131341	0.099489
0.165309	0.118089
0.183425	0.136781
0.199276	0.136688
0.233243	0.155288
0.24683	0.174007
0.267211	0.180153
0.298914	0.1925
0.314765	0.217472
0.332882	0.211099
0.366848	0.229698
0.380435	0.254684
0.398551	0.248311
0.430255	0.266924
0.448371	0.291883
0.464222	0.285523
0.500455	0.304109
0.514042	0.322828
0.532158	0.316456
0.566124	0.335055
0.581976	0.341228
0.597828	0.341135
0.631795	0.359735
0.647647	0.384707
0.663499	0.378347
0.69973	0.396933
0.715581	0.415639
0.731433	0.40928
0.765401	0.427879
0.781252	0.446585
0.799368	0.446479
0.831072	0.465091
0.846922	0.477531
0.865038	0.477424
0.896741	0.489771
0.914858	0.502197
0.932974	0.508357
0.964677	0.520703
0.975998	0.526903
0.998645	0.539303
