Adsorption isotherm of 2-Methylbutane on Y-fum-fcu-MOF
DOI: 10.1002/anie.201506345
Article source: Figure 3
Adsorbate 2-Methylbutane: InChIKey QWTDNUCVQCZILF-UHFFFAOYSA-N
Kind: experiment
Temperature: 293 K
Tabular data in the source: 0
pressure (bar)	uptake (mmol/g)
0.013019	0
0.020613	0
0.040144	-0.004989
0.052075	0
0.070519	0
0.081368	0
0.099811	0
0.105235	0
0.124764	0
0.130188	0
0.156228	-0.004989
0.160563	0.004989
0.184433	0
0.187689	0
0.209385	0
0.214808	0.004989
0.237591	0.004989
0.245188	0
0.260376	0
0.265798	0.004989
0.292924	0
0.29943	0.004989
0.318962	0
0.322216	0
0.353675	0.004989
0.368864	0.004989
0.375373	0.004989
0.406836	0.004989
0.415515	0.004989
0.431788	0.004989
0.435043	0.004989
0.457826	0.004989
0.4741	0.004989
0.481696	0
0.483862	0.009977
0.505564	0
0.519663	0.009977
0.531602	0
0.55438	0.009977
