Adsorption isotherm of N-Butane on Y-fum-fcu-MOF
DOI: 10.1002/anie.201506345
Article source: Figure 3
Adsorbate N-Butane: InChIKey IJDNQMDRQITEOD-UHFFFAOYSA-N
Kind: experiment
Temperature: 293 K
Tabular data in the source: 0
pressure (bar)	uptake (mmol/g)
0.001297	0.787442
0.001654	0.39862
0.002996	1.13684
0.014918	1.35312
0.032986	1.47575
0.065171	1.62266
0.093439	1.63677
0.099494	1.64155
0.133768	1.71459
0.168105	1.71872
0.19028	1.76742
0.242807	1.76129
0.256903	1.81018
0.311453	1.79908
0.323547	1.82833
0.372033	1.82229
0.394222	1.85623
0.450771	1.86969
0.452809	1.84996
0.513403	1.8584
0.525491	1.89257
0.573955	1.91114
0.588132	1.87144
0.646679	1.90946
0.656793	1.89447
0.715348	1.92265
0.729505	1.90263
0.788053	1.94065
0.810287	1.92538
0.838554	1.93949
0.86482	1.93396
0.901167	1.94789
0.94965	1.94677
0.971861	1.9561
1.01832	1.95503
