Adsorption isotherm of Isobutane on Y-fum-fcu-MOF
DOI: 10.1002/anie.201506345
Article source: Figure 3
Adsorbate Isobutane: InChIKey NNPPMTNAJDCUHE-UHFFFAOYSA-N
Kind: experiment
Temperature: 293 K
Tabular data in the source: 0
pressure (bar)	uptake (mmol/g)
0.02425	-0.010403
0.048482	-0.001119
0.068669	0.013181
0.098984	-0.002284
0.133312	0.011689
0.175738	0.005789
0.197958	0.005276
0.234325	-0.000485
0.260585	-0.001091
0.307048	-0.002163
0.327248	-0.002629
0.38381	-0.003934
0.395922	0.00563
0.456533	-0.005612
0.460565	0.004139
0.50501	-0.001808
0.523196	-0.00715
0.577728	0.001436
0.589849	0.001156
0.63632	-0.00976
0.658537	-0.005351
0.694898	-0.00619
0.715099	-0.006656
0.775711	-0.017898
0.793891	-0.018317
0.854479	-0.00495
0.86256	-0.005136
0.907007	-0.011083
0.947407	-0.012016
0.973664	-0.0077
1.00599	-0.013367
