Adsorption isotherm of N-Pentane on Tb-fmu-fcu MOF
DOI: 10.1002/anie.201506345
Article source: Figure S19a
Adsorbate N-Pentane: InChIKey OFBQJSOFQDEBGM-UHFFFAOYSA-N
Kind: experiment
Temperature: 293 K
Tabular data in the source: 0
pressure (bar)	uptake (mmol/g)
0	0
0.001219	0.925261
0.006097	1.03842
0.013414	1.10312
0.024388	1.1638
0.039021	1.1841
0.053654	1.21652
0.069506	1.22067
0.075604	1.23687
0.095114	1.24104
0.107308	1.25729
0.12438	1.25336
0.132916	1.27362
0.148768	1.26565
0.16584	1.28597
0.184132	1.28205
0.190228	1.29421
0.208519	1.29029
0.214617	1.30246
0.234127	1.29855
0.239004	1.3107
0.259735	1.30276
0.265831	1.31492
0.29144	1.32722
0.295097	1.31512
0.318267	1.32336
0.323144	1.33551
0.338996	1.33966
0.345093	1.33162
0.369482	1.34794
0.378018	1.33992
0.402406	1.36029
0.409722	1.35629
0.428014	1.3645
0.441428	1.36459
0.451183	1.37678
0.45728	1.36874
0.469473	1.3769
0.484107	1.38104
0.507276	1.39332
0.518251	1.39743
0.526786	1.40153
0.548735	1.41784
