Adsorption isotherm of Water on Y-fum-fcu-MOF
DOI: 10.1002/anie.201506345
Article source: Figure S15
Adsorbate Water: InChIKey XLYOFNOQVPJJNP-UHFFFAOYSA-N
Kind: experiment
Temperature: 298 K
Tabular data in the source: 0
pressure (bar)	uptake (wt%)
0.000837	0.313725
0.001672	1.41176
0.001949	2.43137
0.002156	3.45098
0.002223	4.47059
0.002285	7.60784
0.002288	6.58824
0.00229	5.4902
0.002353	8.54902
0.002417	10.6667
0.00242	9.56863
0.002554	11.6863
0.002622	12.6275
0.002759	13.7255
0.002816	18.7451
0.002966	14.6667
0.003163	19.6863
0.003242	15.6863
0.003519	16.7059
0.003649	20.7059
0.003796	17.7255
0.004142	18.7451
0.004414	21.8039
0.004629	19.7647
0.005254	20.7843
0.005528	22.902
0.006229	21.8824
0.006295	23.5294
0.006926	22.5098
0.008387	24.549
0.00846	23.451
0.010412	24.3922
0.011526	25.5686
0.013133	25.2549
0.015155	26.2745
0.015994	25.8824
0.017947	26.6667
0.019902	26.5098
0.020739	26.902
0.022973	26.902
0.023741	27.1373
0.025975	27.3725
0.026254	27.2941
0.029116	27.5294
