Adsorption isotherm of 2-Methylbutane on Tb-fmu-fcu MOF
DOI: 10.1002/anie.201506345
Article source: Figure S19a
Adsorbate 2-Methylbutane: InChIKey QWTDNUCVQCZILF-UHFFFAOYSA-N
Kind: experiment
Temperature: 293 K
Tabular data in the source: 0
pressure (bar)	uptake (mmol/g)
0.019511	0.008212
0.023169	0.016318
0.042679	0.008368
0.053654	0.016523
0.074384	0.008582
0.080481	0.016704
0.10365	0.01686
0.126819	0.012975
0.139013	0.017098
0.157304	0.013181
0.159743	0.017237
0.18657	0.013378
0.190228	0.017443
0.214617	0.017607
0.223152	0.013624
0.236566	0.017755
0.263393	0.017936
0.29144	0.018124
0.313389	0.014232
0.324364	0.018346
0.340216	0.018453
0.356068	0.014519
0.376798	0.018699
0.39387	0.018814
0.401187	0.018863
0.414601	0.018954
0.453621	0.019217
0.45606	0.019233
0.485325	0.02347
0.501179	0.023577
0.509714	0.019594
0.520689	0.023709
0.523128	0.023725
0.545077	0.023873
