Adsorption isotherm of N-Pentane on Y-fum-fcu-MOF
DOI: 10.1002/anie.201506345
Article source: Figure 3
Adsorbate N-Pentane: InChIKey OFBQJSOFQDEBGM-UHFFFAOYSA-N
Kind: experiment
Temperature: 293 K
Tabular data in the source: 0
pressure (bar)	uptake (mmol/g)
0.000977	0.219501
0.001948	0.44898
0.002812	0.897959
0.002923	0.673469
0.003793	1.10748
0.005867	1.30204
0.012308	1.44172
0.022025	1.53651
0.027415	1.60635
0.02958	1.61633
0.042604	1.60635
0.052336	1.6712
0.065362	1.65624
0.072954	1.66122
0.079444	1.70113
0.095722	1.69116
0.104384	1.72608
0.125007	1.70612
0.12933	1.74104
0.155373	1.73107
0.160781	1.761
0.184659	1.74104
0.18573	1.77098
0.209592	1.78095
0.215029	1.75601
0.234541	1.79093
0.243235	1.761
0.259503	1.77098
0.266001	1.79592
0.293128	1.78594
0.299627	1.8059
0.316981	1.81587
0.319163	1.79093
0.350612	1.81587
0.353875	1.80091
0.366883	1.82086
0.378825	1.8059
0.403765	1.83084
0.411368	1.81587
0.429806	1.82585
0.430886	1.83583
0.455833	1.8458
0.465604	1.83084
0.478614	1.85079
0.493807	1.84082
0.503564	1.85578
0.519837	1.85578
0.528513	1.86576
0.550209	1.86576
