Adsorption isotherm of N-Butane on Tb-fmu-fcu MOF
DOI: 10.1002/anie.201506345
Article source: Figure S19b
Adsorbate N-Butane: InChIKey IJDNQMDRQITEOD-UHFFFAOYSA-N
Kind: experiment
Temperature: 293 K
Tabular data in the source: 0
pressure (bar)	uptake (mmol/g)
0.022839	0.007875
0.045678	0.00779
0.063949	0.027622
0.095924	0.007602
0.130182	0.027375
0.16444	0.007347
0.194131	0.027136
0.235241	0.011062
0.264932	0.026872
0.303758	0.010807
0.324313	0.026651
0.376842	0.010534
0.390547	0.026403
0.449927	0.014241
0.456778	0.022176
0.518444	0.025926
0.523012	0.013969
0.570974	0.02573
0.593812	0.013704
0.632639	0.02152
0.657762	0.013466
0.726279	0.02117
0.73313	0.017165
0.783376	0.020957
0.817634	0.02083
0.845041	0.024707
0.858744	0.016696
0.899854	0.024503
0.931829	0.016423
0.982075	0.024196
1.01405	0.024077
