Adsorption isotherm of Ethane on Tb-fum-fcu-MOF
DOI: 10.1002/anie.201506345
Article source: Figure S20b
Adsorbate Ethane: InChIKey OTMSDBZUPAUEDD-UHFFFAOYSA-N
Kind: experiment
Temperature: 298 K
Tabular data in the source: 0
pressure (bar)	uptake (mmol/g)
0.013463	0.168249
0.026982	0.297683
0.038266	0.392608
0.054124	0.483238
0.063167	0.547964
0.067716	0.560921
0.079043	0.625657
0.090389	0.677454
0.106302	0.729271
0.119938	0.776765
0.122197	0.794025
0.133585	0.815634
0.18364	0.94953
0.197325	0.962523
0.247434	1.0576
0.26341	1.06629
0.313545	1.14412
0.329538	1.13988
0.37969	1.20477
0.395678	1.20483
0.44585	1.25679
0.464127	1.25255
0.514311	1.29588
0.53031	1.28732
0.582772	1.33497
0.596494	1.32209
0.648967	1.36111
0.662683	1.35254
0.715169	1.38295
0.731163	1.3787
0.78137	1.40478
0.799648	1.40054
0.847578	1.4223
0.86585	1.42237
0.929774	1.43988
0.934335	1.44421
0.998266	1.45741
