Adsorption isotherm of Methane on Tb-fum-fcu-MOF
DOI: 10.1002/anie.201506345
Article source: Figure S20b
Adsorbate Methane: InChIKey VNWKTOKETHGBQD-UHFFFAOYSA-N
Kind: experiment
Temperature: 298 K
Tabular data in the source: 0
pressure (bar)	uptake (mmol/g)
0.004562	0.004331
0.013685	0.012993
0.018265	0.004387
0.025086	0.025977
0.031956	0.013067
0.036493	0.034649
0.041085	0.017417
0.05019	0.039017
0.05477	0.03041
0.063893	0.039072
0.066183	0.034769
0.077597	0.039128
0.086732	0.039165
0.091275	0.056434
0.093571	0.047818
0.104979	0.056489
0.111824	0.06083
0.120947	0.069492
0.120953	0.065179
0.132367	0.069538
0.166606	0.082614
0.182569	0.09993
0.200846	0.095691
0.232796	0.113071
0.246474	0.130377
0.267035	0.126147
0.298985	0.143527
0.312664	0.160833
0.333225	0.156603
0.367464	0.16968
0.381143	0.186986
0.39942	0.182747
0.43366	0.195824
0.447339	0.21313
0.465616	0.208891
0.499856	0.221967
0.513535	0.239273
0.531818	0.230722
0.566057	0.243798
0.58202	0.261113
0.600304	0.252562
0.634544	0.265639
0.6505	0.287266
0.666505	0.274393
0.700752	0.283157
0.714424	0.304776
0.732701	0.300537
0.766948	0.309301
0.78291	0.326616
0.798904	0.322368
0.830865	0.331122
0.849118	0.344134
0.867389	0.344208
0.899345	0.357275
0.915319	0.365965
0.93359	0.366039
0.965546	0.379106
0.974683	0.379143
0.999792	0.38787
