Adsorption isotherm of N-Butane on Tb-fmu-fcu MOF
DOI: 10.1002/anie.201506345
Article source: Figure S19b
Adsorbate N-Butane: InChIKey IJDNQMDRQITEOD-UHFFFAOYSA-N
Kind: experiment
Temperature: 293 K
Tabular data in the source: 0
pressure (bar)	uptake (mmol/g)
0	0.41393
0.002284	0.780091
0.013703	0.967113
0.034258	1.04266
0.068517	1.12213
0.098208	1.12998
0.125614	1.16968
0.16444	1.17352
0.194131	1.20127
0.237524	1.19712
0.25808	1.22093
0.301474	1.22077
0.331165	1.24056
0.376842	1.2364
0.390547	1.24829
0.447643	1.26002
0.456778	1.24805
0.511593	1.27172
0.518444	1.25976
0.586961	1.2794
0.596096	1.27539
0.644059	1.29113
0.660046	1.28311
0.719427	1.29881
0.721711	1.29482
0.785659	1.3105
0.801647	1.30248
0.849609	1.31822
0.877016	1.31414
0.915842	1.32594
0.934113	1.32189
0.970655	1.32971
1.00035	1.33756
