Adsorption isotherm of Water on Tb-fum-fcu-MOF
DOI: 10.1002/anie.201506345
Article source: Figure S15b
Adsorbate Water: InChIKey XLYOFNOQVPJJNP-UHFFFAOYSA-N
Kind: experiment
Temperature: 298 K
Tabular data in the source: 0
pressure (bar)	uptake (wt%)
7e-05	0.33679
0.00014	0.673579
0.00021	1.0585
0.000351	1.39518
0.000421	1.7801
0.000491	2.11688
0.000561	2.45367
0.000631	2.83859
0.000771	3.8972
0.000842	4.90778
0.000982	5.91826
0.001122	6.92874
0.001333	7.93911
0.001543	8.94948
0.001894	10.0078
0.002314	11.0178
0.002735	12.1722
0.003086	11.9792
0.003717	13.0851
0.003787	12.6519
0.00533	13.9971
0.005471	13.6118
0.007014	14.187
0.008627	14.9064
0.010029	14.9042
0.011643	15.4311
0.013676	15.4761
0.015009	15.8109
0.016412	15.7606
0.017744	16.0473
0.019428	16.0447
0.02062	16.2354
0.022654	16.2803
0.023636	16.4232
0.02595	16.4677
0.02602	16.5158
0.029176	16.6552
