Adsorption isotherm of 2-Methylbutane on Y-14-NDC fcu-MOF
DOI: 10.1002/anie.201506345
Article source: Figure S16
Adsorbate 2-Methylbutane: InChIKey QWTDNUCVQCZILF-UHFFFAOYSA-N
Kind: experiment
Temperature: 293 K
Tabular data in the source: 0
pressure (bar)	uptake (mmol/g)
0	0.225513
0.000787	0.433941
0.00175	0.628702
0.007174	0.779043
0.018175	0.871298
0.026891	1.05923
0.033629	0.929385
0.036927	0.960137
0.040237	0.973804
0.049007	1.08998
0.071209	1.00456
0.076672	1.10023
0.092225	1.02506
0.099971	1.02847
0.102127	1.10706
0.122099	1.04214
0.128738	1.04556
0.129797	1.11048
0.147551	1.05239
0.159679	1.11731
0.186245	1.11731
0.186285	1.06264
0.203991	1.06948
0.217238	1.11731
0.24494	1.07973
0.260409	1.11731
0.260433	1.08314
0.289186	1.12073
0.298066	1.08656
0.316882	1.08998
0.3235	1.12073
0.340104	1.12073
0.34787	1.09681
0.377754	1.10023
0.378844	1.12415
0.396557	1.12073
0.419809	1.11048
0.422016	1.12073
0.438628	1.11048
0.449687	1.12415
0.457442	1.1139
0.471825	1.12415
0.495073	1.12073
0.498396	1.11731
0.51057	1.12073
0.519423	1.12415
0.522744	1.12415
0.544882	1.12415
