Adsorption isotherm of Ethane on Y-fum-fcu-MOF
DOI: 10.1002/anie.201506345
Article source: Figure S20a
Adsorbate Ethane: InChIKey OTMSDBZUPAUEDD-UHFFFAOYSA-N
Kind: experiment
Temperature: 298 K
Tabular data in the source: 0
pressure (bar)	uptake (mmol/g)
0.013587	0.219241
0.02491	0.382099
0.038496	0.532411
0.052083	0.657657
0.063406	0.745319
0.06567	0.757839
0.079257	0.845487
0.092844	0.92687
0.106431	0.995719
0.120018	1.0583
0.124547	1.08961
0.131341	1.1209
0.183425	1.30858
0.197012	1.33357
0.24683	1.46487
0.264946	1.48356
0.314765	1.5898
0.330617	1.59597
0.380435	1.67714
0.398551	1.68956
0.448371	1.75193
0.464222	1.75811
0.516306	1.82047
0.529892	1.82039
0.581976	1.87021
0.597828	1.86385
0.649911	1.91368
0.663499	1.90733
0.715581	1.95089
0.731433	1.95079
0.781252	1.98183
0.797104	1.98801
0.849187	2.01277
0.865038	2.01267
0.930709	2.04362
0.935238	2.04359
0.998645	2.06202
