Adsorption isotherm of N-Pentane on Y-14-NDC fcu-MOF
DOI: 10.1002/anie.201506345
Article source: Figure S16
Adsorbate N-Pentane: InChIKey OFBQJSOFQDEBGM-UHFFFAOYSA-N
Kind: experiment
Temperature: 293 K
Tabular data in the source: 0
pressure (bar)	uptake (mmol/g)
0.000789	0.430524
0.002867	0.615034
0.009403	0.758542
0.020394	0.864465
0.026912	1.03189
0.034723	0.946469
0.050129	1.06948
0.064554	1.02164
0.071186	1.03531
0.076678	1.09339
0.093309	1.05581
0.098839	1.06264
0.103226	1.11731
0.122076	1.07289
0.130891	1.12756
0.158555	1.14123
0.158587	1.09681
0.1774	1.10364
0.182901	1.14806
0.209463	1.1549
0.215028	1.1139
0.217241	1.1139
0.230517	1.12415
0.237131	1.16173
0.269251	1.1344
0.271438	1.17198
0.285827	1.17198
0.288064	1.14123
0.320136	1.17882
0.325695	1.14806
0.335631	1.18223
0.344506	1.1549
0.375478	1.18565
0.376602	1.16173
0.397614	1.18907
0.413126	1.16856
0.424177	1.19248
0.428618	1.1754
0.45074	1.1959
0.455179	1.18223
0.472877	1.19932
0.499448	1.19248
0.500547	1.20273
0.510513	1.19932
0.528215	1.20957
0.548135	1.2164
