Adsorption isotherm of N-propane on Y-fum-fcu-MOF
DOI: 10.1002/anie.201506345
Article source: Figure S20a
Adsorbate N-propane: InChIKey ATUOYWHBWRKTHZ-UHFFFAOYSA-N
Kind: experiment
Temperature: 298 K
Tabular data in the source: 0
pressure (bar)	uptake (mmol/g)
0.013587	1.04013
0.027174	1.31577
0.040761	1.45981
0.056612	1.57878
0.061142	1.63515
0.06567	1.62886
0.079257	1.68517
0.092844	1.72269
0.106431	1.76021
0.120018	1.79146
0.124547	1.82277
0.133605	1.81645
0.18116	1.9227
0.199276	1.92259
0.24683	1.99124
0.267211	1.97859
0.312501	2.05352
0.332882	2.0346
0.380435	2.09072
0.400816	2.0718
0.446106	2.11539
0.466487	2.09648
0.511777	2.13381
0.534421	2.11488
0.579712	2.15847
0.600092	2.13329
0.645382	2.16435
0.665763	2.1517
0.711052	2.1765
0.733697	2.16384
0.778988	2.18863
0.799368	2.17598
0.846922	2.20077
0.865038	2.18813
0.932974	2.2128
0.998645	2.21241
