Adsorption isotherm of Carbon Dioxide on UTSA-25A
DOI: 10.1002/ejic.201100034
Adsorbate Carbon Dioxide: InChIKey CURLTUGMZLYLDI-UHFFFAOYSA-N
Temperature: 296 K
Tabular data in the source: 0
pressure (bar)	uptake (cm3(STP)/g)
0.00936569	1.83908
0.121115	12.8736
0.237362	21.6092
0.390831	33.5632
0.567449	45.5172
0.799835	61.1494
1.00899	75.4023
