Adsorption isotherm of Nitrogen on UTSA-25A
DOI: 10.1002/ejic.201100034
Adsorbate Nitrogen: InChIKey IJGRMHOSHXDMSA-UHFFFAOYSA-N
Temperature: 77 K
Tabular data in the source: 0
pressure (bar)	uptake (cm3(STP)/g)
0.0161356	316.908
0.0364027	324.638
0.11386	326.57
0.241855	332.367
0.373201	336.232
0.531466	338.164
0.679728	351.691
0.838189	376.812
0.91236	388.406
