Adsorption isotherm of Carbon Dioxide on Zn(BDC)(DABCO)0.5
DOI: 10.1002/ejic.201100034
Adsorbate Carbon Dioxide: InChIKey CURLTUGMZLYLDI-UHFFFAOYSA-N
Temperature: 273 K
Tabular data in the source: 0
pressure (bar)	uptake (cm3(STP)/g)
0.0674089	5.56291
0.269572	23.8411
0.476437	45.298
0.683207	69.1391
0.885082	94.5695
0.995617	108.874
