Adsorption isotherm of Carbon Dioxide on Zn(BDC)(DABCO)0.5
DOI: 10.1002/ejic.201100034
Adsorbate Carbon Dioxide: InChIKey CURLTUGMZLYLDI-UHFFFAOYSA-N
Temperature: 296 K
Tabular data in the source: 0
pressure (bar)	uptake (cm3(STP)/g)
0.0139687	1.37931
0.269157	11.0345
0.422387	18.8506
0.584877	26.6667
0.747339	34.023
0.891337	42.2989
1.00277	47.8161
