Adsorption isotherm of Methane on Zn(BDC)(DABCO)0.5
DOI: 10.1002/ejic.201100034
Adsorbate Methane: InChIKey VNWKTOKETHGBQD-UHFFFAOYSA-N
Temperature: 273 K
Tabular data in the source: 0
pressure (bar)	uptake (cm3(STP)/g)
0.0241546	1.58068
0.144928	3.08406
0.289855	5.36812
0.415459	6.86763
0.618357	10.7053
0.821256	13.743
0.971014	16.0232
