Adsorption isotherm of Methane on UTSA-25A
DOI: 10.1002/ejic.201100034
Adsorbate Methane: InChIKey VNWKTOKETHGBQD-UHFFFAOYSA-N
Temperature: 296 K
Tabular data in the source: 0
pressure (bar)	uptake (cm3(STP)/g)
0.0185185	2.84e-14
0.273334	3.21839
0.421589	5.05747
0.588335	6.43678
0.768971	7.81609
0.880188	9.65517
0.996036	11.4943
