Adsorption isotherm of Carbon Dioxide on UTSA-25A
DOI: 10.1002/ejic.201100034
Adsorbate Carbon Dioxide: InChIKey CURLTUGMZLYLDI-UHFFFAOYSA-N
Temperature: 273 K
Tabular data in the source: 0
pressure (bar)	uptake (cm3(STP)/g)
0.0142688	5.56291
0.177432	32.5828
0.364686	61.1921
0.643408	97.7483
0.811722	116.821
0.994593	134.305
