Adsorption isotherm of Methane on UTSA-25A
DOI: 10.1002/ejic.201100034
Adsorbate Methane: InChIKey VNWKTOKETHGBQD-UHFFFAOYSA-N
Temperature: 273 K
Tabular data in the source: 0
pressure (bar)	uptake (cm3(STP)/g)
0.0628019	1.54976
0.2657	5.38744
0.323671	6.14106
0.52657	9.97874
0.637681	10.6899
0.7343	13.0126
0.850242	14.5198
0.942029	16.0464
0.995169	16.8039
