Adsorption isotherm of Water on MIL-101 pellet
DOI: 10.1002/cite.201600051
Article source: Figure 6
Adsorbate Water: InChIKey XLYOFNOQVPJJNP-UHFFFAOYSA-N
Kind: experiment
Temperature: 298 K
Tabular data in the source: 0
pressure (bar)	uptake (mmol/g)
3.2e-05	0.0662
0.000368	0.5238
0.001741	1.7702
0.003685	2.5712
0.007252	3.6253
0.01019	4.4988
0.0141	5.9864
0.016392	9.647
0.016676	13.6201
0.017047	17.5753
0.017122	21.3858
0.017482	24.6848
0.017594	27.9054
0.01791	31.0659
0.01855	34.2385
0.021091	36.9359
0.023936	37.5685
0.027043	38.132
0.009016	3.6399
0.011115	4.9595
0.012043	6.4655
0.012475	8.9955
0.012558	11.5253
0.012662	14.1998
0.012733	18.4011
0.012811	19.2294
0.01338	21.8317
0.013493	24.7728
0.013539	26.9517
0.01366	29.584
0.013787	31.644
0.013855	33.2787
0.014217	35.7823
0.016245	37.3909
0.01836	38.0057
0.022105	38.91
0.028398	39.7545
