Adsorption isotherm of Sevoflurane on MIL-101 powder
DOI: 10.1002/cite.201600051
Article source: Figure 5
Adsorbate Sevoflurane: InChIKey DFEYYRMXOJXZRJ-UHFFFAOYSA-N
Kind: experiment
Temperature: 298 K
Tabular data in the source: 0
pressure (bar)	uptake (mmol/g)
0.000345	0.0177
0.000771	0.2069
0.001326	0.4194
0.00193	0.6545
0.002472	0.8622
0.003309	1.0554
0.004095	1.2607
0.004634	1.4515
0.005405	1.6503
0.005975	1.9498
0.007009	2.2573
0.00814	2.5463
0.008924	2.8297
0.010302	3.1404
0.011859	3.5574
0.014073	3.964
0.015217	4.5058
0.017045	4.3471
0.020774	4.7359
0.022071	4.8575
0.025735	5.1625
0.028004	5.1858
0.032722	5.4611
0.037425	5.6011
0.04081	5.8088
0.045049	6.237
0.050875	6.0799
0.056098	6.5275
0.069719	6.6163
0.085617	6.4497
0.091187	6.7235
0.113193	6.7947
0.125199	6.6834
0.135311	6.8465
0.156574	6.904
0.16165	6.9861
0.180865	6.9645
0.200598	7.0703
0.218955	7.0534
0.23619	7.1554
0.24008	7.1042
