Adsorption isotherm of Sevoflurane on MIL-101 pellet
DOI: 10.1002/cite.201600051
Article source: Figure 5
Adsorbate Sevoflurane: InChIKey DFEYYRMXOJXZRJ-UHFFFAOYSA-N
Kind: experiment
Temperature: 298 K
Tabular data in the source: 0
pressure (bar)	uptake (mmol/g)
0.000231	0.1772
0.000281	0.0862
0.000297	0.0161
0.000316	0.3311
0.000418	0.4873
0.00065	0.6371
0.000997	0.787
0.001131	0.8796
0.001428	1.1172
0.001662	1.346
0.001862	1.5635
0.002178	1.7882
0.002296	2.0266
0.00248	2.2771
0.002598	2.522
0.002914	2.7459
0.003148	2.986
0.003464	3.2083
0.003927	3.4249
0.004605	3.6706
0.005463	3.8817
0.007953	4.2547
0.008855	4.1008
0.010554	4.27
0.011217	4.6019
0.013721	4.821
0.014244	4.6382
0.016669	5.074
0.01922	4.9314
0.021955	5.2947
0.02691	5.2014
0.027455	5.5002
0.031939	5.5617
0.032131	5.5575
0.047095	5.8807
0.048368	6.3237
0.063496	6.4077
0.083126	6.3484
0.095364	6.5343
0.120583	6.6039
0.125546	6.5592
0.158626	6.6902
0.161445	6.6761
0.187103	6.7635
0.203904	6.7983
0.223421	6.851
0.246129	6.9511
0.25693	6.9939
