Adsorption isotherm of Water on MIL-101 powder
DOI: 10.1002/cite.201600051
Article source: Figure 6
Adsorbate Water: InChIKey XLYOFNOQVPJJNP-UHFFFAOYSA-N
Kind: experiment
Temperature: 298 K
Tabular data in the source: 0
pressure (bar)	uptake (mmol/g)
4.4e-05	0.1083
0.001421	2.5461
0.003687	3.9246
0.005883	4.4904
0.007895	4.8997
0.010127	5.2849
0.012622	5.7243
0.014668	6.573
0.015847	7.8371
0.016783	10.7083
0.017174	13.5734
0.017576	16.577
0.017727	19.4001
0.018002	22.1569
0.0183	24.9197
0.018585	27.809
0.019345	31.17
0.019792	34.8636
0.02012	38.6376
0.021682	46.6854
0.024183	48.0758
0.027159	49.7733
0.029991	50.7665
0.013013	20.8584
0.013052	22.5032
0.013223	24.4333
0.013264	26.2391
0.013268	38.9534
0.01327	39.3295
0.013309	29.8604
0.013329	35.4979
0.013333	41.164
0.013341	42.3586
0.013345	42.4488
0.013361	42.7842
0.013387	43.1514
0.014197	45.1099
0.015651	46.4106
0.01796	47.7861
0.019422	48.5138
0.022382	49.502
0.025365	50.2462
