Adsorption isotherm of Nitrogen on MIL-68(In)-NH2
DOI: 10.1021/Jp104788p
Adsorbate Nitrogen: InChIKey IJGRMHOSHXDMSA-UHFFFAOYSA-N
Temperature: 77 K
Tabular data in the source: 0
pressure (bar)	uptake (cm3(STP)/g)
2.70947e-05	25.0885
7.60841e-05	55.4224
0.000158002	86.6567
0.000319959	116.972
0.000772598	146.38
0.00177408	175.785
0.00368234	196.928
0.0052381	204.287
0.0103396	226.344
0.0108729	226.347
0.0136488	247.461
0.0189445	266.746
0.0199344	279.593
0.0298232	289.707
0.0338262	294.302
0.0403491	300.734
0.0532113	302.584
0.068439	307.186
0.102384	316.383
0.149418	332.918
0.287338	335.708
0.596139	347.676
0.891775	355.956
0.987093	375.228
