Adsorption isotherm of Nitrogen on NH2-MIL-53(Al)
DOI: 10.1021/Jp104788p
Adsorbate Nitrogen: InChIKey IJGRMHOSHXDMSA-UHFFFAOYSA-N
Temperature: 77 K
Tabular data in the source: 0
pressure (bar)	uptake (cm3(STP)/g)
4.06625e-07	25.7669
0.000288359	49.0763
0.000872115	55.5613
0.00185474	60.1914
0.0122429	85.9869
0.0235599	102.538
0.0303224	119.983
0.0335555	134.668
0.0420914	141.103
0.0465751	153.953
0.0502497	164.049
0.0584674	175.984
0.0599672	179.655
0.0715523	191.592
0.0811865	203.526
0.094446	211.791
0.107145	220.055
0.131158	241.168
0.156437	245.765
0.206474	264.129
0.265625	273.318
0.301351	282.499
0.378056	291.687
0.462488	299.955
0.551728	308.222
0.610248	312.815
0.746536	321.083
0.805439	331.179
0.826368	341.272
0.962315	369.722
