Adsorption isotherm of Nitrogen on CAU-1
DOI: 10.1021/Jp104788p
Adsorbate Nitrogen: InChIKey IJGRMHOSHXDMSA-UHFFFAOYSA-N
Temperature: 77 K
Tabular data in the source: 0
pressure (bar)	uptake (cm3(STP)/g)
7.14469e-06	19.508
1.44662e-05	47.0711
2.11195e-05	70.9458
3.08272e-05	91.1508
4.28059e-05	118.692
5.24063e-05	142.557
6.5786e-05	163.671
8.68508e-05	187.54
0.000114668	212.327
0.000189843	237.126
0.000338894	260.095
0.000590002	284.897
0.00119414	304.203
0.00527307	336.398
0.00613343	341.911
0.0104029	347.445
0.0117981	350.205
0.019513	354.821
0.0284639	362.182
0.0404812	365.871
0.0590396	369.563
0.0798645	376.919
0.122478	379.696
0.169897	387.054
0.267187	389.832
0.399615	394.442
0.554279	399.965
0.788562	410.077
0.917484	421.095
1.01517	433.027
