Adsorption isotherm of Nitrogen on IRMOF-1
DOI: 10.1021/Jp104788p
Adsorbate Nitrogen: InChIKey IJGRMHOSHXDMSA-UHFFFAOYSA-N
Temperature: 77 K
Tabular data in the source: 0
pressure (bar)	uptake (cm3(STP)/g)
3.15896e-07	5.56901
5.35814e-07	12.0211
1.1395e-06	15.7338
1.74773e-06	21.2627
2.48567e-06	24.9525
3.19738e-06	31.3888
4.4348e-06	36.912
5.70432e-06	42.431
7.15457e-06	47.031
8.97374e-06	51.6311
1.24467e-05	57.1543
1.72641e-05	62.6775
2.39455e-05	68.2007
3.86219e-05	73.7325
6.88912e-05	81.1049
0.000142877	85.7335
0.000599285	94.9895
0.00140943	100.543
0.0029227	102.419
0.00548143	107.042
0.00637373	106.133
0.0100231	107.994
0.0188007	115.369
0.0361513	116.324
0.0644813	122.779
0.123985	122.816
0.190116	122.84
0.365603	125.63
0.620097	131.164
0.88224	142.194
1.00376	208.256
1.02662	155.964
1.08057	174.315
1.08141	189.912
