Adsorption isotherm of Benzene on [Zn(TCNQ-TCNQ)bpy]
DOI: 10.1021/Cm101410h
Adsorbate Benzene: InChIKey UHOVQNZJYSORNB-UHFFFAOYSA-N
Temperature: 298 K
Tabular data in the source: 0
pressure (bar)	uptake (ml/g)
0.00838327	0.413576
0.0172317	1.04027
0.0246379	17.0705
0.0253223	21.9891
0.0259961	30.5441
0.026234	28.8325
0.0262464	24.5544
0.0263137	1.45265
0.0264463	35.8909
0.0264538	33.3241
0.0268953	41.6656
0.0273686	39.0979
0.0278207	43.803
0.0280462	46.3695
0.0289666	50.2182
0.0296559	53.4256
0.0312782	56.2036
0.0322042	58.1271
0.0323679	1.87018
0.0347599	60.2618
0.037551	61.5405
0.0405756	62.6049
0.0433679	63.4558
0.0468584	64.5194
0.0503494	65.3691
0.054074	66.0045
0.058265	66.4252
0.0619902	66.8466
0.0654819	67.4824
0.0689748	67.6904
0.0780568	68.1028
0.095286	69.9987
0.1039	71.2675
0.111113	73.6082
0.118791	76.162
0.125765	80.856
