Adsorption isotherm of Oxygen on C40H22N10Mn
DOI: 10.1021/Cm101410h
Adsorbate Oxygen: InChIKey MYMOFIZGZYHOMD-UHFFFAOYSA-N
Temperature: 77 K
Tabular data in the source: 0
pressure (bar)	uptake (ml/g)
0	52.9915
0.000363616	133.332
0.000727232	73.5011
0.00109085	113.67
0.0021817	180.332
0.00545424	192.284
0.00872679	205.945
0.0127266	221.312
0.014181	229.853
0.0159991	241.811
0.0196353	253.761
0.0247259	258.867
0.0287257	270.816
0.035998	275.058
0.0392706	277.607
0.0556333	284.374
0.0618148	286.057
0.0709052	287.727
0.0803592	290.25
0.0912677	291.912
0.101449	294.432
0.110539	293.538
0.120721	295.203
0.131265	298.576
0.140719	297.68
0.150537	300.202
0.159628	301.017
0.169445	303.539
0.178899	306.062
0.188717	311.147
