Adsorption isotherm of Carbon Dioxide on C40H22N10Mn
DOI: 10.1021/Cm101410h
Adsorbate Carbon Dioxide: InChIKey CURLTUGMZLYLDI-UHFFFAOYSA-N
Temperature: 195 K
Tabular data in the source: 0
pressure (bar)	uptake (ml/g)
0.0243344	32.4581
0.0580281	36.7033
0.074875	41.8173
0.101081	50.3422
0.194675	79.3232
0.204034	80.17
0.295756	117.7
0.305116	118.546
0.400581	143.252
0.409941	145.808
0.497919	169.666
0.50915	173.075
0.613975	183.243
0.711313	188.29
0.814266	192.476
0.915347	197.519
0.965888	198.332
