Adsorption isotherm of Oxygen on [Zn(TCNQ-TCNQ)bpy]
DOI: 10.1021/Cm101410h
Adsorbate Oxygen: InChIKey MYMOFIZGZYHOMD-UHFFFAOYSA-N
Temperature: 77 K
Tabular data in the source: 0
pressure (bar)	uptake (ml/g)
0.00581786	1.65746
0.012363	2.48619
0.0192717	1.65746
0.0258168	4.14365
0.0334527	4.14365
0.0403614	4.14365
0.0465429	5.8011
0.0534516	5.8011
0.0596331	6.62983
0.0618148	53.0387
0.062542	58.8398
0.0629056	21.547
0.0632692	43.0939
0.0639965	93.6464
0.0643601	85.3591
0.0650873	7.45856
0.0654509	113.536
0.0661782	120.994
0.0669054	130.11
0.067269	138.398
0.0683599	145.856
0.0698143	154.144
0.071996	170.718
0.0727232	178.177
0.0752686	185.635
0.0799956	205.525
0.0821773	212.155
0.086177	217.956
0.089086	222.928
0.0919949	228.729
0.0970855	232.044
0.101813	235.359
0.106176	238.674
0.111267	241.989
0.117448	245.304
0.122902	244.475
0.127629	246.961
0.134174	249.448
0.140719	251.105
0.146174	253.591
0.152355	253.591
0.158537	254.42
0.164355	256.906
0.169445	259.392
0.174536	262.707
0.179263	265.193
0.182899	267.68
0.186899	275.967
0.188717	282.597
