Adsorption isotherm of Cyclohexane on C40H22N10Mn
DOI: 10.1021/Cm101410h
Adsorbate Cyclohexane: InChIKey XDTMQSROBMDMFD-UHFFFAOYSA-N
Temperature: 298 K
Tabular data in the source: 0
pressure (bar)	uptake (ml/g)
0.00501865	0.215054
0.0100373	0.215054
0.0136221	0.430108
0.0184017	0.430108
0.0231814	0.645161
0.0279611	1.07527
0.0322628	1.29032
0.0365645	1.93548
0.0411051	2.36559
0.0456458	3.01075
0.0501865	3.22581
0.0540102	4.08602
0.0587899	4.73118
0.0628526	5.16129
0.0673933	6.23656
0.071456	7.52688
0.0755187	8.8172
0.0800594	10.1075
0.0838832	10.9677
0.0879459	12.4731
0.0917696	13.7634
0.0958323	15.2688
0.099895	18.4946
0.102524	19.7849
0.107065	21.2903
0.110888	23.6559
0.114234	25.1613
0.117819	27.5269
0.121882	29.8925
0.125466	33.9785
0.127856	41.0753
