Adsorption isotherm of Nitrogen on C40H22N10Mn
DOI: 10.1021/Cm101410h
Adsorbate Nitrogen: InChIKey IJGRMHOSHXDMSA-UHFFFAOYSA-N
Temperature: 77 K
Tabular data in the source: 0
pressure (bar)	uptake (ml/g)
0.00537742	49.5679
0.00716989	61.5322
0.0143398	80.3293
0.0179247	96.5654
0.0215097	102.545
0.0286795	109.376
0.0430194	125.603
0.0519817	136.706
0.0663216	148.66
0.0770765	152.069
0.0950011	164.019
0.17387	195.574
0.197172	202.391
0.292173	213.418
0.392553	217.603
0.487553	222.648
0.587931	225.978
0.684725	229.312
0.783309	232.644
0.878313	235.979
0.924915	241.921
