Adsorption isotherm of Nitrogen on [Zn(TCNQ-TCNQ)bpy]
DOI: 10.1021/Cm101410h
Adsorbate Nitrogen: InChIKey IJGRMHOSHXDMSA-UHFFFAOYSA-N
Temperature: 77 K
Tabular data in the source: 0
pressure (bar)	uptake (ml/g)
0.0448118	1.65746
0.209719	1.65746
0.241984	1.65746
0.437363	4.14365
0.548497	3.31492
0.634535	4.97238
0.745668	4.14365
0.794065	4.97238
0.842462	7.45856
0.885481	11.6022
