Adsorption isotherm of Cyclohexane on [Zn(TCNQ-TCNQ)bpy]
DOI: 10.1021/Cm101410h
Adsorbate Cyclohexane: InChIKey XDTMQSROBMDMFD-UHFFFAOYSA-N
Temperature: 298 K
Tabular data in the source: 0
pressure (bar)	uptake (ml/g)
0.00406082	0.634993
0.0090795	0.62669
0.0183973	1.46689
0.0375161	1.43526
0.0425335	1.85476
0.0518539	1.83934
0.0566342	1.61753
0.0618906	2.03664
0.0702538	2.45061
0.0750341	2.2288
0.0843539	2.42729
0.0891317	3.06109
0.0939107	3.26709
0.103227	4.5351
0.108006	4.955
0.111348	6.23289
0.115404	8.36522
0.118982	10.7122
0.121839	14.3439
0.123256	19.903
