Adsorption isotherm of Argon on C40H22N10Mn
DOI: 10.1021/Cm101410h
Adsorbate Argon: InChIKey XKRFYHLGVUSROY-UHFFFAOYSA-N
Temperature: 77 K
Tabular data in the source: 0
pressure (bar)	uptake (ml/g)
0.00113137	105.125
0.00169705	70.9354
0.00282841	135.89
0.00678819	154.682
0.00961661	160.657
0.0181018	169.18
0.0254557	173.433
0.0322439	177.688
0.0656192	195.544
0.0905092	204.876
0.100126	207.413
0.122187	216.753
0.128976	220.153
0.16122	229.465
0.18215	239.663
0.18611	242.216
0.220616	253.231
0.244941	260.001
0.278316	267.6
0.293589	270.976
