Adsorption isotherm of Benzene on C40H22N10Mn
DOI: 10.1021/Cm101410h
Adsorbate Benzene: InChIKey UHOVQNZJYSORNB-UHFFFAOYSA-N
Temperature: 298 K
Tabular data in the source: 0
pressure (bar)	uptake (ml/g)
0.00209612	32.9032
0.00372643	65.8065
0.0183993	73.3333
0.0363327	75.2688
0.045183	75.6989
0.0542662	76.3441
0.0633494	76.7742
0.0724325	77.2043
0.0817486	77.4194
0.0908318	77.6344
0.0996821	78.4946
0.108765	79.1398
0.117616	80
