Adsorption isotherm of Carbon Dioxide on [Zn(TCNQ-TCNQ)bpy]
DOI: 10.1021/Cm101410h
Adsorbate Carbon Dioxide: InChIKey CURLTUGMZLYLDI-UHFFFAOYSA-N
Temperature: 195 K
Tabular data in the source: 0
pressure (bar)	uptake (ml/g)
0.0112313	8.28729
0.0692594	10.7735
0.112313	10.7735
0.146006	13.2597
0.168469	13.2597
0.202163	14.9171
0.232113	17.4033
0.260191	17.4033
0.303244	19.0608
0.350041	19.0608
0.404325	23.2044
0.456738	24.8619
0.505406	24.8619
0.559691	28.1768
0.606488	31.4917
0.6589	33.1492
0.715056	34.8066
0.75811	37.2928
0.810522	38.1215
0.864807	42.2652
0.879782	44.7514
0.913475	45.5801
0.92845	46.4088
0.941553	47.2376
0.965888	47.2376
