Adsorption isotherm of Argon on [Zn(TCNQ-TCNQ)bpy]
DOI: 10.1021/Cm101410h
Adsorbate Argon: InChIKey XKRFYHLGVUSROY-UHFFFAOYSA-N
Temperature: 87 K
Tabular data in the source: 0
pressure (bar)	uptake (ml/g)
0.0344002	0.828729
0.253475	2.48619
0.37297	3.31492
0.425476	3.31492
0.481602	4.14365
0.537729	4.14365
0.651793	5.8011
0.870867	12.4309
0.898025	12.4309
0.923373	16.5746
0.950531	22.3757
