Adsorption isotherm of Nitrogen on MIL-101-B2
DOI: 10.1039/C1ce06138k
Adsorbate Nitrogen: InChIKey IJGRMHOSHXDMSA-UHFFFAOYSA-N
Temperature: 77 K
Tabular data in the source: 0
pressure (bar)	uptake (cm3(STP)/g)
0.00868398	369.846
0.0390779	393.824
0.0651298	405.772
0.0911818	414.707
0.121576	426.637
0.160654	432.51
0.186706	438.433
0.221441	447.335
0.260519	450.195
0.303939	450.027
0.347359	452.871
0.390779	455.714
0.494987	461.335
0.534065	470.219
0.573143	473.08
0.642614	478.835
0.694718	484.657
0.781558	490.345
0.82932	499.196
0.846688	505.152
0.87274	517.1
0.89445	529.064
0.920502	550.047
0.93787	601.185
0.946554	619.223
0.955238	643.286
0.963922	670.361
