Adsorption isotherm of Nitrogen on MIL-101-C2
DOI: 10.1039/C1ce06138k
Adsorbate Nitrogen: InChIKey IJGRMHOSHXDMSA-UHFFFAOYSA-N
Temperature: 77 K
Tabular data in the source: 0
pressure (bar)	uptake (cm3(STP)/g)
0.0132107	130.839
0.0305806	147.263
0.0654479	158.212
0.104682	169.161
0.156967	188.321
0.200615	191.058
0.261648	207.482
0.318379	212.956
0.366378	218.431
0.418742	223.905
0.458008	229.38
0.510373	234.854
0.567104	240.328
0.615102	245.803
0.65875	248.54
0.68055	254.015
0.724166	262.226
0.780865	273.175
0.820115	281.387
0.863667	300.547
0.89412	319.708
0.911474	338.869
0.937529	363.504
0.950517	382.664
