Adsorption isotherm of Nitrogen on MIL-101-A2
DOI: 10.1039/C1ce06138k
Adsorbate Nitrogen: InChIKey IJGRMHOSHXDMSA-UHFFFAOYSA-N
Temperature: 77 K
Tabular data in the source: 0
pressure (bar)	uptake (cm3(STP)/g)
0.0321607	396.305
0.0804017	514.019
0.096482	541.981
0.112562	583.475
0.139363	640.79
0.158123	652.835
0.182244	668.563
0.201004	683.991
0.241205	758.125
0.281406	756.149
0.332327	753.083
0.369848	746.729
0.48777	724.584
0.538691	714.752
0.586932	705.616
0.632493	698.867
0.686094	688.34
0.731655	679.899
0.779896	672.455
0.798656	670.969
0.830817	664.314
0.852258	667.207
0.876378	667.713
0.900499	671.602
0.921939	681.26
0.946059	708.827
0.95678	736.489
0.96214	784.147
