Adsorption isotherm of Nitrogen on MIL-101-C1
DOI: 10.1039/C1ce06138k
Adsorbate Nitrogen: InChIKey IJGRMHOSHXDMSA-UHFFFAOYSA-N
Temperature: 77 K
Tabular data in the source: 0
pressure (bar)	uptake (cm3(STP)/g)
0.013026	89.7086
0.0434199	110.675
0.0824978	122.572
0.117234	128.461
0.156312	137.346
0.243151	155.082
0.308281	157.841
0.356043	163.68
0.416831	169.469
0.468935	172.279
0.516697	178.118
0.564459	183.957
0.625246	189.746
0.673008	198.597
0.729454	210.426
0.781558	216.248
0.816294	231.174
0.846688	243.104
0.877082	267.083
0.89445	282.076
0.920502	306.071
0.942212	342.132
0.950896	369.206
