Adsorption isotherm of Nitrogen on MIL-101-A3
DOI: 10.1039/C1ce06138k
Adsorbate Nitrogen: InChIKey IJGRMHOSHXDMSA-UHFFFAOYSA-N
Temperature: 77 K
Tabular data in the source: 0
pressure (bar)	uptake (cm3(STP)/g)
0.0107202	247.958
0.0268006	336.808
0.0589612	414.72
0.0804017	459.896
0.096482	503.081
0.123283	565.471
0.168843	601.005
0.187604	613.05
0.246565	680.624
0.297486	677.558
0.361807	667.631
0.410048	656.804
0.455609	648.363
0.50921	636.145
0.562812	623.927
0.605692	616.181
0.686094	593.625
0.755776	578.925
0.795976	566.802
0.828137	560.147
0.873698	550.015
0.900499	543.06
0.94874	532.233
0.96482	531.443
