Adsorption isotherm of Nitrogen on MIL-101-B1
DOI: 10.1039/C1ce06138k
Adsorbate Nitrogen: InChIKey IJGRMHOSHXDMSA-UHFFFAOYSA-N
Temperature: 77 K
Tabular data in the source: 0
pressure (bar)	uptake (cm3(STP)/g)
0.017368	198.125
0.0260519	216.164
0.0694718	228.044
0.104208	233.933
0.156312	245.78
0.191048	254.681
0.243151	263.516
0.303939	266.292
0.351701	269.119
0.399463	274.958
0.442883	274.79
0.486303	280.645
0.534065	283.472
0.581827	286.299
0.681692	294.949
0.733796	303.783
0.794584	312.583
0.842346	327.458
0.87274	336.377
0.89445	348.341
0.911818	378.394
0.942212	447.553
0.946554	477.657
0.955238	528.828
