Adsorption isotherm of Nitrogen on MIL-101-A5
DOI: 10.1039/C1ce06138k
Adsorbate Nitrogen: InChIKey IJGRMHOSHXDMSA-UHFFFAOYSA-N
Temperature: 77 K
Tabular data in the source: 0
pressure (bar)	uptake (cm3(STP)/g)
0.012398	270.438
0.0340705	297.81
0.0557909	316.971
0.077575	325.182
0.0993591	333.394
0.121111	347.08
0.160329	360.766
0.182113	368.978
0.238765	388.139
0.317328	393.613
0.369708	396.35
0.452654	399.088
0.509385	404.562
0.557415	404.562
0.605429	407.299
0.65781	410.036
0.705856	407.299
0.762587	412.774
0.810585	418.248
0.854217	423.723
0.893419	440.146
0.919522	456.569
0.941035	511.314
0.945306	527.737
0.966851	577.007
