Adsorption isotherm of Nitrogen on MIL-101-A6
DOI: 10.1039/C1ce06138k
Adsorbate Nitrogen: InChIKey IJGRMHOSHXDMSA-UHFFFAOYSA-N
Temperature: 77 K
Tabular data in the source: 0
pressure (bar)	uptake (cm3(STP)/g)
0.00868398	402.978
0.0347359	436.01
0.0738138	453.931
0.104208	468.873
0.160654	483.715
0.182364	492.667
0.221441	495.527
0.269203	507.39
0.321307	510.201
0.408147	524.924
0.460251	530.746
0.508013	533.573
0.568801	545.386
0.629588	551.175
0.681692	566.033
0.777216	595.783
0.794584	601.74
0.82932	619.678
0.85103	637.666
0.87274	655.654
0.89445	688.702
0.91616	730.787
0.93787	827.088
0.946554	854.163
0.95958	947.486
