Adsorption isotherm of Nitrogen on MIL-101-A1
DOI: 10.1039/C1ce06138k
Adsorbate Nitrogen: InChIKey IJGRMHOSHXDMSA-UHFFFAOYSA-N
Temperature: 77 K
Tabular data in the source: 0
pressure (bar)	uptake (cm3(STP)/g)
0.0160803	359.886
0.0268006	450.128
0.0562812	559.179
0.0696814	621.664
0.096482	677.288
0.107202	715.098
0.120602	757.287
0.163483	807.047
0.179564	821.478
0.201004	844.667
0.222445	878.004
0.241205	905.271
0.276046	911.451
0.318927	907.089
0.359127	901.731
0.407368	892.595
0.460969	882.068
0.511891	872.236
0.565492	860.017
0.608373	853.964
0.659294	839.058
0.731655	820.28
0.761136	814.321
0.825457	801.012
0.871018	792.571
0.903179	784.225
0.921939	781.048
