Adsorption isotherm of Nitrogen on MIL-101-A4
DOI: 10.1039/C1ce06138k
Adsorbate Nitrogen: InChIKey IJGRMHOSHXDMSA-UHFFFAOYSA-N
Temperature: 77 K
Tabular data in the source: 0
pressure (bar)	uptake (cm3(STP)/g)
0.0124139	267.701
0.0295448	325.182
0.0553925	385.401
0.0727305	407.299
0.0900367	434.672
0.111646	472.993
0.13335	494.891
0.163803	514.051
0.198575	541.423
0.237633	582.482
0.281201	598.905
0.324817	607.117
0.355366	609.854
0.390281	612.591
0.420814	618.066
0.486262	626.277
0.538627	631.752
0.577876	639.964
0.625859	648.175
0.673857	653.65
0.721808	667.336
0.791558	686.496
0.822075	694.708
0.843811	711.131
0.869866	735.766
0.891539	763.139
0.917482	806.934
0.943378	858.942
0.956365	878.102
