Adsorption isotherm of Propene on CuBTC
DOI: 10.1021/La301215y
Adsorbate Propene: InChIKey QQONPFPTGQHPMA-UHFFFAOYSA-N
Temperature: 323 K
Tabular data in the source: 0
pressure (bar)	uptake (mmol/g)
0.00330457	0.825397
0.0239985	1.79894
0.0341611	3.13228
0.0583393	4.10582
0.0877625	4.99471
0.131178	5.62963
0.198984	6.26455
0.270339	6.60317
0.33649	6.83598
0.447929	7.11111
0.540226	7.28042
0.644724	7.42857
0.763186	7.44974
0.895563	7.57672
0.987879	7.66138
