Adsorption isotherm of Propene on CuBTC
DOI: 10.1021/La301215y
Adsorbate Propene: InChIKey QQONPFPTGQHPMA-UHFFFAOYSA-N
Temperature: 373 K
Tabular data in the source: 0
pressure (bar)	uptake (mmol/g)
0.00521453	0.18001
0.0628696	0.811814
0.0995336	1.33032
0.164194	1.96244
0.223615	2.5269
0.281285	3.09129
0.34597	3.61105
0.412411	4.10842
0.48415	4.40378
0.547128	4.72122
0.625877	4.99442
0.716895	5.22323
0.814918	5.45236
0.911205	5.61399
0.995248	5.70765
