Adsorption isotherm of N-propane on CuBTC
DOI: 10.1021/La301215y
Adsorbate N-propane: InChIKey ATUOYWHBWRKTHZ-UHFFFAOYSA-N
Temperature: 323 K
Tabular data in the source: 0
pressure (bar)	uptake (mmol/g)
0.0122888	0.471698
0.0614439	1.62264
0.0906298	2.56604
0.122888	3.88679
0.18126	5.0566
0.248848	5.66038
0.336406	6.01887
0.407066	6.20755
0.49616	6.39623
0.59447	6.54717
0.691244	6.62264
0.81106	6.75472
0.895545	6.75472
0.99232	6.81132
