Adsorption isotherm of Propene on CuBTC
DOI: 10.1021/La301215y
Adsorbate Propene: InChIKey QQONPFPTGQHPMA-UHFFFAOYSA-N
Temperature: 348 K
Tabular data in the source: 0
pressure (bar)	uptake (mmol/g)
0.00526316	0.495775
0.0245614	1.30704
0.0508772	2.34366
0.0789474	3.42535
0.122807	4.37183
0.170175	5.02535
0.233333	5.65634
0.329825	6.24225
0.391228	6.58028
0.505263	6.87324
0.594737	7.03099
0.701754	7.14366
0.798246	7.21127
0.9	7.30141
0.984211	7.34648
