Adsorption isotherm of Propene on CuBTC
DOI: 10.1021/La301215y
Adsorbate Propene: InChIKey QQONPFPTGQHPMA-UHFFFAOYSA-N
Temperature: 423 K
Tabular data in the source: 0
pressure (bar)	uptake (mmol/g)
0.0139004	0.169312
0.0486929	0.402116
0.0991649	0.634921
0.146129	0.973545
0.193112	1.22751
0.267947	1.5873
0.349755	1.92593
0.401978	2.1164
0.495976	2.47619
0.596957	2.77249
0.708377	3.13228
0.804136	3.40741
0.920815	3.61905
0.988736	3.72487
