Adsorption isotherm of Propene on CuBTC
DOI: 10.1021/La301215y
Adsorbate Propene: InChIKey QQONPFPTGQHPMA-UHFFFAOYSA-N
Temperature: 348 K
Tabular data in the source: 0
pressure (bar)	uptake (mmol/g)
0.00512969	0.444444
0.0223623	1.31217
0.046536	2.30688
0.0811303	3.44974
0.12273	4.42328
0.173128	4.99471
0.22873	5.67196
0.331388	6.26455
0.39754	6.49735
0.507222	6.83598
0.594298	6.98413
0.700542	7.11111
0.801564	7.21693
0.895636	7.2381
0.987939	7.38624
