Adsorption isotherm of Propene on CuBTC
DOI: 10.1021/La301215y
Adsorbate Propene: InChIKey QQONPFPTGQHPMA-UHFFFAOYSA-N
Temperature: 373 K
Tabular data in the source: 0
pressure (bar)	uptake (mmol/g)
0.00694615	0.269975
0.0592932	1.14873
0.0906739	1.80183
0.146519	2.70321
0.204124	3.55974
0.277531	4.23719
0.347485	4.68977
0.412219	4.98482
0.485729	5.19037
0.546965	5.46278
0.616973	5.66818
0.715006	5.85236
0.809542	6.01391
0.904077	6.17546
0.989866	6.29168
