Adsorption isotherm of Propene on CuBTC
DOI: 10.1021/La301215y
Adsorbate Propene: InChIKey QQONPFPTGQHPMA-UHFFFAOYSA-N
Temperature: 323 K
Tabular data in the source: 0
pressure (bar)	uptake (mmol/g)
0.0215054	0.792453
0.0983103	1.77358
0.184332	2.75472
0.241167	3.50943
0.299539	4.16981
0.354839	4.73585
0.410138	5.32075
0.482335	5.73585
0.556068	6.22642
0.626728	6.54717
0.709677	6.83019
0.806452	7.15094
0.906298	7.33962
0.995392	7.5283
