Adsorption isotherm of Propene on CuBTC
DOI: 10.1021/La301215y
Adsorbate Propene: InChIKey QQONPFPTGQHPMA-UHFFFAOYSA-N
Temperature: 373 K
Tabular data in the source: 0
pressure (bar)	uptake (mmol/g)
0.00694615	0.269975
0.0295703	0.922677
0.0661508	1.8232
0.127235	2.79224
0.193612	3.58174
0.279268	4.30469
0.349211	4.80221
0.412189	5.11965
0.475192	5.32473
0.536448	5.50726
0.594181	5.77951
0.697468	5.96393
0.797238	6.21561
0.902282	6.37763
0.991588	6.42659
