Adsorption isotherm of Propene on CuBTC
DOI: 10.1021/La301215y
Adsorbate Propene: InChIKey QQONPFPTGQHPMA-UHFFFAOYSA-N
Temperature: 373 K
Tabular data in the source: 0
pressure (bar)	uptake (mmol/g)
0.00694615	0.269975
0.0628056	1.10395
0.0941863	1.75704
0.1553	2.59125
0.200666	3.35733
0.275834	3.98993
0.347524	4.51
0.412253	4.82752
0.480495	5.10025
0.546995	5.32795
0.622266	5.48864
0.715031	5.74
0.814825	5.87932
0.907609	6.04079
0.995159	6.11214
