Adsorption isotherm of N-propane on CuBTC
DOI: 10.1021/La301215y
Adsorbate N-propane: InChIKey ATUOYWHBWRKTHZ-UHFFFAOYSA-N
Temperature: 323 K
Tabular data in the source: 0
pressure (bar)	uptake (mmol/g)
0.00549396	0.636114
0.0266003	1.18061
0.0494457	1.72503
0.0811842	2.72358
0.148031	4.47054
0.190036	5.08227
0.249432	5.69321
0.338284	6.05281
0.409646	6.18593
0.498439	6.40916
0.597666	6.63192
0.700283	6.64999
0.813383	6.78121
0.902047	6.709
0.995988	6.77291
