Adsorption isotherm of N-propane on CuBTC
DOI: 10.1021/La301215y
Adsorbate N-propane: InChIKey ATUOYWHBWRKTHZ-UHFFFAOYSA-N
Temperature: 348 K
Tabular data in the source: 0
pressure (bar)	uptake (mmol/g)
0.0141598	0.567538
0.0421632	0.975356
0.101619	1.72265
0.161024	2.35632
0.223968	3.12618
0.304312	3.91799
0.374123	4.48299
0.442096	4.82081
0.501354	5.11357
0.577953	5.29191
0.684156	5.55981
0.785113	5.75977
0.868669	5.93779
0.992174	6.00036
