Adsorption isotherm of Propene on CuBTC
DOI: 10.1021/La301215y
Adsorbate Propene: InChIKey QQONPFPTGQHPMA-UHFFFAOYSA-N
Temperature: 323 K
Tabular data in the source: 0
pressure (bar)	uptake (mmol/g)
0.00330457	0.825397
0.0117481	2.05291
0.0253627	3.53439
0.0511771	4.99471
0.0875459	5.98942
0.13617	6.70899
0.188351	7.08995
0.257987	7.32275
0.338085	7.51323
0.400775	7.64021
0.519224	7.72487
0.641156	7.80952
0.756144	7.78836
0.879828	7.83069
0.987833	7.87302
