Adsorption isotherm of Propene on CuBTC
DOI: 10.1021/La301215y
Adsorbate Propene: InChIKey QQONPFPTGQHPMA-UHFFFAOYSA-N
Temperature: 423 K
Tabular data in the source: 0
pressure (bar)	uptake (mmol/g)
0.0139096	0.126984
0.048716	0.296296
0.0991879	0.529101
0.146166	0.804233
0.194892	1.0582
0.267998	1.3545
0.349792	1.75661
0.410694	2.09524
0.496004	2.34921
0.596957	2.77249
0.708377	3.13228
0.804136	3.40741
0.920801	3.68254
0.985233	3.80952
