Adsorption isotherm of Propene on CuBTC
DOI: 10.1021/La301215y
Adsorbate Propene: InChIKey QQONPFPTGQHPMA-UHFFFAOYSA-N
Temperature: 373 K
Tabular data in the source: 0
pressure (bar)	uptake (mmol/g)
0.00701754	0.360563
0.0263158	1.03662
0.0666667	1.87042
0.121053	2.86197
0.196491	3.71831
0.277193	4.37183
0.350877	4.89014
0.414035	5.11549
0.473684	5.38592
0.542105	5.61127
0.6	5.79155
0.698246	5.97183
0.794737	6.17465
0.903509	6.35493
0.991228	6.4
