Adsorption isotherm of Propene on CuBTC
DOI: 10.1021/La301215y
Adsorbate Propene: InChIKey QQONPFPTGQHPMA-UHFFFAOYSA-N
Temperature: 423 K
Tabular data in the source: 0
pressure (bar)	uptake (mmol/g)
0.0157895	0.157746
0.0508772	0.292958
0.0947368	0.495775
0.149123	0.766197
0.201754	1.05915
0.261404	1.39718
0.342105	1.73521
0.401754	2.00563
0.5	2.45634
0.594737	2.79437
0.708772	3.17746
0.8	3.35775
0.921053	3.67324
0.984211	3.83099
