Adsorption isotherm of Propene on CuBTC
DOI: 10.1021/La301215y
Adsorbate Propene: InChIKey QQONPFPTGQHPMA-UHFFFAOYSA-N
Temperature: 348 K
Tabular data in the source: 0
pressure (bar)	uptake (mmol/g)
0.00513891	0.402116
0.0380326	1.3545
0.0691887	2.28571
0.142028	3.80952
0.178461	4.50794
0.237574	5.0582
0.308911	5.48148
0.404661	5.79894
0.47431	5.96825
0.545697	6.15873
0.627537	6.34921
0.716364	6.45503
0.817387	6.56085
0.904472	6.66667
0.989805	6.81481
