Adsorption isotherm of Propene on CuBTC
DOI: 10.1021/La301215y
Adsorbate Propene: InChIKey QQONPFPTGQHPMA-UHFFFAOYSA-N
Temperature: 373 K
Tabular data in the source: 0
pressure (bar)	uptake (mmol/g)
0.00516657	0.275132
0.0416137	0.910053
0.0867163	1.79894
0.147489	2.73016
0.218715	3.66138
0.277828	4.21164
0.350884	4.74074
0.410044	5.07937
0.474448	5.33333
0.535387	5.50265
0.603281	5.73545
0.695587	5.86243
0.801809	6.09524
0.899333	6.26455
0.989897	6.39153
