Adsorption isotherm of Propene on CuBTC
DOI: 10.1021/La301215y
Adsorbate Propene: InChIKey QQONPFPTGQHPMA-UHFFFAOYSA-N
Temperature: 323 K
Tabular data in the source: 0
pressure (bar)	uptake (mmol/g)
0.00330457	0.825397
0.0117481	2.05291
0.0253627	3.53439
0.0511771	4.99471
0.0875459	5.98942
0.176221	6.79365
0.294577	7.30159
0.41993	7.68254
0.526146	7.93651
0.594063	8.06349
0.689868	8.12698
0.789171	8.12698
0.991211	8.35979
