Adsorption isotherm of Propene on CuBTC
DOI: 10.1021/La301215y
Adsorbate Propene: InChIKey QQONPFPTGQHPMA-UHFFFAOYSA-N
Temperature: 348 K
Tabular data in the source: 0
pressure (bar)	uptake (mmol/g)
0.00512969	0.444444
0.0223623	1.31217
0.046536	2.30688
0.0811303	3.44974
0.101884	4.14815
0.157486	4.8254
0.197426	5.41799
0.322696	6.17989
0.399314	6.34921
0.503779	6.6455
0.592597	6.79365
0.70057	6.98413
0.801564	7.21693
0.895636	7.2381
0.987966	7.25926
