Adsorption isotherm of Propene on CuBTC
DOI: 10.1021/La301215y
Adsorbate Propene: InChIKey QQONPFPTGQHPMA-UHFFFAOYSA-N
Temperature: 323 K
Tabular data in the source: 0
pressure (bar)	uptake (mmol/g)
0.00175439	0.811268
0.0122807	2.07324
0.0263158	3.60563
0.054386	5.04789
0.0929825	6.10704
0.163158	6.69296
0.275439	7.30141
0.373684	7.6169
0.505263	7.90986
0.645614	8.18028
0.780702	8.18028
0.992982	8.42817
