Adsorption isotherm of Propene on CuBTC
DOI: 10.1021/La301215y
Adsorbate Propene: InChIKey QQONPFPTGQHPMA-UHFFFAOYSA-N
Temperature: 373 K
Tabular data in the source: 0
pressure (bar)	uptake (mmol/g)
0.0105263	0.270423
0.0350877	0.878873
0.0807018	1.64507
0.14386	2.70423
0.215789	3.67324
0.285965	4.3493
0.350877	4.73239
0.414035	5.11549
0.475439	5.29577
0.542105	5.5662
0.603509	5.72394
0.696491	5.88169
0.796491	6.08451
0.908772	6.26479
0.991228	6.4
