Adsorption isotherm of Propene on CuBTC
DOI: 10.1021/La301215y
Adsorbate Propene: InChIKey QQONPFPTGQHPMA-UHFFFAOYSA-N
Temperature: 323 K
Tabular data in the source: 0
pressure (bar)	uptake (mmol/g)
0.00861382	0.652073
0.0188117	2.06826
0.0325269	3.41719
0.0654719	4.92429
0.0968231	5.71222
0.137009	6.14099
0.194699	6.61549
0.278682	6.97882
0.364432	7.27481
0.44145	7.45804
0.565757	7.62093
0.641043	7.7142
0.758365	7.78689
0.8862	7.83758
0.982497	7.95427
