Adsorption isotherm of N-propane on CuBTC
DOI: 10.1021/La301215y
Adsorbate N-propane: InChIKey ATUOYWHBWRKTHZ-UHFFFAOYSA-N
Temperature: 323 K
Tabular data in the source: 0
pressure (bar)	uptake (mmol/g)
0.00614439	0.754717
0.06298	2.39623
0.121352	4.50943
0.155146	5.49057
0.207373	6.30189
0.250384	6.79245
0.325653	7.13208
0.388633	7.33962
0.46851	7.58491
0.554531	7.79245
0.663594	7.9434
0.794163	8.09434
0.895545	8.09434
0.99232	8.07547
