Adsorption isotherm of Propene on CuBTC
DOI: 10.1021/La301215y
Adsorbate Propene: InChIKey QQONPFPTGQHPMA-UHFFFAOYSA-N
Temperature: 323 K
Tabular data in the source: 0
pressure (bar)	uptake (mmol/g)
0.00175439	0.811268
0.0122807	2.07324
0.0263158	3.60563
0.054386	5.04789
0.0929825	6.10704
0.133333	6.71549
0.182456	7.12113
0.257895	7.41408
0.338596	7.57183
0.396491	7.66197
0.517544	7.72958
0.635088	7.81972
0.75614	7.81972
0.880702	7.86479
0.987719	7.86479
