Adsorption isotherm of N-propane on CuBTC
DOI: 10.1021/La301215y
Adsorbate N-propane: InChIKey ATUOYWHBWRKTHZ-UHFFFAOYSA-N
Temperature: 323 K
Tabular data in the source: 0
pressure (bar)	uptake (mmol/g)
-0.000182017	0.831452
0.0118065	2.06795
0.0254873	3.57418
0.0531833	5.05857
0.089749	6.02651
0.138643	6.68039
0.187585	7.10955
0.259339	7.3375
0.341601	7.56591
0.397633	7.61338
0.518438	7.77611
0.639253	7.8939
0.756589	7.89917
0.884434	7.90492
0.987756	7.93203
