Adsorption isotherm of N-propane on CuBTC
DOI: 10.1021/La301215y
Adsorbate N-propane: InChIKey ATUOYWHBWRKTHZ-UHFFFAOYSA-N
Temperature: 323 K
Tabular data in the source: 0
pressure (bar)	uptake (mmol/g)
0.0215054	0.716981
0.164363	2.09434
0.248848	2.98113
0.330261	3.81132
0.403994	4.39623
0.44086	4.62264
0.500768	4.90566
0.548387	5.16981
0.609831	5.4717
0.672811	5.62264
0.749616	5.84906
0.837174	6.07547
0.921659	6.20755
0.99232	6.28302
