Adsorption isotherm of Propene on CuBTC
DOI: 10.1021/La301215y
Adsorbate Propene: InChIKey QQONPFPTGQHPMA-UHFFFAOYSA-N
Temperature: 323 K
Tabular data in the source: 0
pressure (bar)	uptake (mmol/g)
0.00861382	0.652073
0.0310904	1.97893
0.0535867	3.21589
0.0830636	4.56553
0.137187	5.33201
0.1913	6.14343
0.259526	6.48357
0.334778	6.73415
0.415298	6.91754
0.487057	7.12301
0.569339	7.26154
0.648122	7.37744
0.763673	7.53994
0.886249	7.61287
0.986059	7.68477
