Adsorption isotherm of Propene on CuBTC
DOI: 10.1021/La301215y
Adsorbate Propene: InChIKey QQONPFPTGQHPMA-UHFFFAOYSA-N
Temperature: 423 K
Tabular data in the source: 0
pressure (bar)	uptake (mmol/g)
0.0157895	0.157746
0.0508772	0.383099
0.0929825	0.630986
0.145614	0.991549
0.192982	1.19437
0.264912	1.62254
0.347368	1.91549
0.396491	2.14085
0.5	2.45634
0.594737	2.79437
0.708772	3.17746
0.8	3.35775
0.921053	3.67324
0.984211	3.83099
