Adsorption isotherm of N-propane on CuBTC
DOI: 10.1021/La301215y
Adsorbate N-propane: InChIKey ATUOYWHBWRKTHZ-UHFFFAOYSA-N
Temperature: 348 K
Tabular data in the source: 0
pressure (bar)	uptake (mmol/g)
0.00886346	0.385961
0.0350981	0.725677
0.0823798	1.47353
0.0999091	1.79091
0.129642	2.17593
0.185718	3.15065
0.316743	4.50833
0.393451	4.93666
0.457886	5.13828
0.553655	5.40665
0.651114	5.56131
0.783354	5.71439
0.870348	5.80135
0.993834	5.81846
