Adsorption isotherm of Propene on CuBTC
DOI: 10.1021/La301215y
Adsorbate Propene: InChIKey QQONPFPTGQHPMA-UHFFFAOYSA-N
Temperature: 373 K
Tabular data in the source: 0
pressure (bar)	uptake (mmol/g)
0.00516657	0.275132
0.0346174	1.03704
0.0692716	1.90476
0.126546	2.89947
0.190845	3.64021
0.276072	4.27513
0.350884	4.74074
0.410044	5.07937
0.474448	5.33333
0.535387	5.50265
0.603281	5.73545
0.695574	5.92593
0.803537	6.15873
0.899333	6.26455
0.989897	6.39153
