Adsorption isotherm of N-propane on CuBTC
DOI: 10.1021/La301215y
Adsorbate N-propane: InChIKey ATUOYWHBWRKTHZ-UHFFFAOYSA-N
Temperature: 423 K
Tabular data in the source: 0
pressure (bar)	uptake (mmol/g)
0.0139424	0.0675481
0.0870536	0.223316
0.201913	0.399913
0.285488	0.623387
0.341179	0.711765
0.402107	0.845359
0.494348	1.00026
0.583141	1.22349
0.699779	1.49092
0.807682	1.66783
0.906879	1.82241
0.988706	2.02324
