Adsorption isotherm of Propene on CuBTC
DOI: 10.1021/La301215y
Adsorbate Propene: InChIKey QQONPFPTGQHPMA-UHFFFAOYSA-N
Temperature: 323 K
Tabular data in the source: 0
pressure (bar)	uptake (mmol/g)
-0.000182017	0.831452
0.0118065	2.06795
0.0254873	3.57418
0.0531833	5.05857
0.0915249	5.91423
0.135234	6.25327
0.19466	6.79527
0.262891	7.11294
0.341645	7.36367
0.437927	7.54777
0.565738	7.71082
0.639282	7.75907
0.75658	7.94412
0.884414	7.99481
0.982477	8.04416
