Adsorption isotherm of Propene on CuBTC
DOI: 10.1021/La301215y
Adsorbate Propene: InChIKey QQONPFPTGQHPMA-UHFFFAOYSA-N
Temperature: 373 K
Tabular data in the source: 0
pressure (bar)	uptake (mmol/g)
0.00516657	0.275132
0.046877	0.740741
0.0954916	1.50265
0.14936	2.13757
0.213636	2.98413
0.276229	3.55556
0.352751	4.16931
0.415404	4.46561
0.478062	4.74074
0.55639	5.0582
0.629519	5.24868
0.721812	5.43915
0.817589	5.62963
0.899443	5.75661
0.996981	5.86243
