Adsorption isotherm of N-propane on CuBTC
DOI: 10.1021/La301215y
Adsorbate N-propane: InChIKey ATUOYWHBWRKTHZ-UHFFFAOYSA-N
Temperature: 423 K
Tabular data in the source: 0
pressure (bar)	uptake (mmol/g)
0.0139622	0.113002
0.088852	0.359598
0.163732	0.583467
0.236863	0.784688
0.343037	0.984407
0.437037	1.18468
0.518853	1.36278
0.605867	1.49519
0.689423	1.67321
0.766013	1.82882
0.854766	1.96115
0.934814	2.07114
0.995731	2.18201
