Adsorption isotherm of N-propane on CuBTC
DOI: 10.1021/La301215y
Adsorbate N-propane: InChIKey ATUOYWHBWRKTHZ-UHFFFAOYSA-N
Temperature: 373 K
Tabular data in the source: 0
pressure (bar)	uptake (mmol/g)
0.0070552	0.226952
0.0402858	0.65726
0.0891089	0.950495
0.15886	1.37914
0.249541	1.9432
0.3611	2.52904
0.443035	2.97986
0.538873	3.40732
0.619029	3.76732
0.725282	4.14885
0.810597	4.37225
0.906346	4.59517
0.989931	4.84137
