Adsorption isotherm of Propene on CuBTC
DOI: 10.1021/La301215y
Adsorbate Propene: InChIKey QQONPFPTGQHPMA-UHFFFAOYSA-N
Temperature: 423 K
Tabular data in the source: 0
pressure (bar)	uptake (mmol/g)
0.0139096	0.126984
0.0904955	0.444444
0.160131	0.677249
0.247161	1.03704
0.323751	1.33333
0.447339	1.82011
0.525672	2.1164
0.59357	2.32804
0.661468	2.53968
0.745036	2.79365
0.814681	2.98413
0.875611	3.19577
0.931332	3.32275
0.992276	3.4709
