Adsorption isotherm of N-propane on CuBTC
DOI: 10.1021/La301215y
Adsorbate N-propane: InChIKey ATUOYWHBWRKTHZ-UHFFFAOYSA-N
Temperature: 373 K
Tabular data in the source: 0
pressure (bar)	uptake (mmol/g)
0.0122527	0.181261
0.0384182	0.36189
0.0873006	0.791486
0.16055	1.26543
0.246062	1.94336
0.32281	2.4626
0.396099	3.02745
0.490237	3.5459
0.610452	4.04043
0.701024	4.3545
0.805468	4.57702
0.899468	4.7773
0.989951	4.88682
