Adsorption isotherm of Propene on CuBTC
DOI: 10.1021/La301215y
Adsorbate Propene: InChIKey QQONPFPTGQHPMA-UHFFFAOYSA-N
Temperature: 323 K
Tabular data in the source: 0
pressure (bar)	uptake (mmol/g)
0.01414	0.522085
0.0369953	1.08923
0.0633387	1.67894
0.088101	2.63236
0.128683	3.97142
0.18137	5.15085
0.249432	5.69321
0.338284	6.05281
0.409646	6.18593
0.498419	6.36371
0.599336	6.47276
0.698514	6.58189
0.813344	6.6903
0.902047	6.709
0.995988	6.77291
