Adsorption isotherm of Propene on CuBTC
DOI: 10.1021/La301215y
Adsorbate Propene: InChIKey QQONPFPTGQHPMA-UHFFFAOYSA-N
Temperature: 323 K
Tabular data in the source: 0
pressure (bar)	uptake (mmol/g)
0.0030722	0.773585
0.0138249	2.03774
0.0261137	3.5283
0.0537634	5
0.0921659	6.03774
0.138249	6.71698
0.187404	7.07547
0.259601	7.37736
0.400922	7.62264
0.520737	7.75472
0.637481	7.79245
0.761905	7.83019
0.883257	7.84906
0.993856	7.88679
