Adsorption isotherm of Nitrogen on TPT-DAHQ COF
DOI: 10.1002/asia.201900296
Article source: Figure 2a
Adsorbate Nitrogen: InChIKey IJGRMHOSHXDMSA-UHFFFAOYSA-N
Kind: experiment
Temperature: 77 K
Tabular data in the source: 0
pressure (bar)	uptake (cm3(STP)/g)
1.01292	561.732
0.997674	553.483
0.982433	543.858
0.965279	538.363
0.93669	528.745
0.915719	526.004
0.976698	554.87
0.955738	543.873
0.932862	539.757
0.915708	534.261
0.896644	531.519
0.887131	515.011
0.887117	526.02
0.873772	524.651
0.871877	515.019
0.845171	524.667
0.828012	523.3
0.831839	512.289
0.812764	517.804
0.812777	508.171
0.780355	513.693
0.784179	505.434
0.751752	515.084
0.751764	505.451
0.728885	504.088
0.711727	501.345
0.709805	513.731
0.656424	506.879
0.658347	494.493
0.62593	495.887
0.60304	502.78
0.555373	501.43
0.561108	490.417
0.526784	491.812
0.502003	486.321
0.5039	494.577
0.454329	490.475
0.458153	482.216
0.429554	480.856
0.404769	478.117
0.404757	487.75
0.357092	485.024
0.359012	474.013
0.330416	469.9
0.301818	467.164
0.30181	474.044
0.284659	465.797
0.256053	469.941
0.25607	456.179
0.235098	454.815
0.206507	446.573
0.216046	442.44
0.196997	427.312
0.187474	419.061
0.176063	395.672
0.157004	388.802
0.160832	377.791
0.139863	373.674
0.143696	358.534
0.124635	353.04
0.120839	339.28
0.09987	335.163
0.103701	321.4
0.078924	313.156
0.097996	309.018
0.078939	300.771
0.061787	293.9
0.061803	281.514
0.042746	273.268
0.04277	254.002
0.021821	234.747
0.035159	241.62
0.02184	219.609
0.008507	208.607
0.010436	190.716
0.008542	181.084
0.005129	165.949
0.001333	152.189
0.00135	138.428
0.001366	126.042
0.001383	112.281
0.001401	98.5195
0.001417	86.1342
0.001429	76.5012
0.001439	68.2443
0.00236	57.2372
0.000439	46.227
