Adsorption isotherm of Nitrogen on Rho-ZMOF
DOI: 10.1039/c4ce01401d
Article source: Figure 8
Adsorbate Nitrogen: InChIKey IJGRMHOSHXDMSA-UHFFFAOYSA-N
Kind: experiment
Temperature: 77 K
Tabular data in the source: 0
pressure (bar)	uptake (cm3(STP)/g)
0.001492	104.425
0.001532	99.115
0.001586	92.0354
0.003578	130.973
0.003692	115.929
0.005913	124.779
0.008087	139.823
0.017092	159.292
0.030781	164.602
0.039907	168.142
0.051335	169.912
0.060489	169.912
0.074199	172.566
0.085634	173.451
0.092485	175.221
0.106215	175.221
0.154236	179.646
0.206847	182.301
0.254882	184.956
0.305212	186.726
0.353247	189.381
0.38984	192.035
0.40816	190.265
0.456194	192.92
0.495076	195.575
0.508826	192.92
0.556854	196.46
0.591165	198.23
0.607184	198.23
0.655225	200
0.691825	201.77
0.70785	200.885
0.794779	204.425
0.808516	203.54
0.858846	205.31
0.888567	208.85
0.906894	206.195
0.959512	207.965
0.993689	227.434
