Adsorption isotherm of Nitrogen on RhoZMOF(Ni)
DOI: 10.1039/c4ce01401d
Article source: Figure 8
Adsorbate Nitrogen: InChIKey IJGRMHOSHXDMSA-UHFFFAOYSA-N
Kind: experiment
Temperature: 77 K
Tabular data in the source: 0
pressure (bar)	uptake (cm3(STP)/g)
0	28.3186
0	34.5133
0	48.6726
0	54.8673
0	59.292
0	69.0265
0.001802	63.7168
0.001931	46.9027
0.001958	43.3628
0.001964	42.4779
0.003983	77.8761
0.004016	73.4513
0.006244	81.4159
0.008512	84.0708
0.010787	85.8407
0.026765	91.1504
0.033616	92.9204
0.045031	96.4602
0.054177	97.3451
0.067894	99.115
0.074752	100
0.090757	101.77
0.097615	102.655
0.104473	103.54
0.152495	107.965
0.202804	112.389
0.253114	116.814
0.30343	120.354
0.353746	123.894
0.390285	133.628
0.406344	128.319
0.454365	132.743
0.492929	176.991
0.502379	138.053
0.554984	141.593
0.593548	185.841
0.6053	145.133
0.65561	149.558
0.694167	194.69
0.705926	153.097
0.756229	158.407
0.794773	205.31
0.804243	163.717
0.852251	169.912
0.897923	182.301
0.902189	223.009
0.950318	213.274
0.995687	265.487
