Adsorption isotherm of Nitrogen on RhoZMOF(Co)
DOI: 10.1039/c4ce01401d
Article source: Figure 8
Adsorbate Nitrogen: InChIKey IJGRMHOSHXDMSA-UHFFFAOYSA-N
Kind: experiment
Temperature: 77 K
Tabular data in the source: 0
pressure (bar)	uptake (cm3(STP)/g)
0	23.0088
0	57.5221
0	64.6018
0.00189	52.2124
0.001931	46.9027
0.002059	30.0885
0.002099	24.7788
0.0108	84.0708
0.022222	86.7257
0.02908	87.6106
0.040515	88.4956
0.051936	91.1504
0.061083	92.0354
0.070229	92.9204
0.079363	95.5752
0.093092	95.5752
0.102232	97.3451
0.152549	100.885
0.200583	103.54
0.250899	107.08
0.303504	110.619
0.351539	113.274
0.401835	119.469
0.40415	115.929
0.452178	119.469
0.499659	194.69
0.500213	122.124
0.552817	125.664
0.600852	128.319
0.602593	200
0.648866	133.628
0.700951	205.31
0.701478	136.283
0.749492	141.593
0.799289	213.274
0.799775	149.558
0.850017	162.832
0.89529	227.434
0.900137	192.035
0.952485	229.204
0.993547	246.018
