Adsorption isotherm of Nitrogen on RhoZMOF(CU)
DOI: 10.1039/c4ce01401d
Article source: Figure 8
Adsorbate Nitrogen: InChIKey IJGRMHOSHXDMSA-UHFFFAOYSA-N
Kind: experiment
Temperature: 77 K
Tabular data in the source: 0
pressure (bar)	uptake (cm3(STP)/g)
0.001424	113.274
0.001519	100.885
0.001539	98.2301
0.001559	95.5752
0.010409	135.398
0.019474	146.903
0.030869	153.097
0.037714	155.752
0.046853	157.522
0.060563	160.177
0.06971	161.062
0.085708	163.717
0.092566	164.602
0.101713	165.487
0.14972	171.681
0.197748	175.221
0.248064	178.761
0.300676	181.416
0.348704	184.956
0.396732	188.496
0.490506	194.69
0.499484	217.699
0.552257	199.115
0.60013	223.009
0.600285	202.655
0.648313	206.195
0.698454	232.743
0.700904	211.504
0.748918	216.814
0.796757	245.133
0.799208	223.894
0.851751	235.398
0.895014	263.717
0.899712	247.788
0.952202	266.372
0.988565	299.115
