Adsorption isotherm of Hydrogen on Cu3(cdm)4
DOI: 10.1021/Cm502189c
Adsorbate Hydrogen: InChIKey UFHFLCQGNIYNRP-UHFFFAOYSA-N
Temperature: 77 K
Tabular data in the source: 0
pressure (bar)	uptake (cm3(STP)/g)
0.204269	0.192366
0.24051	0.0329466
0.279302	0.0382606
0.305163	0.0418032
0.338748	0.210787
0.393056	0.218227
0.421468	0.386503
0.455124	0.226729
0.53005	0.56576
0.597325	0.410593
0.667115	0.584536
0.755079	0.432203
0.824869	0.606146
0.91797	0.6189
1.06021	0.638385
1.18431	0.819768
