Adsorption isotherm of Methane on Cu3(cdm)4
DOI: 10.1021/Cm502189c
Adsorbate Methane: InChIKey VNWKTOKETHGBQD-UHFFFAOYSA-N
Temperature: 273 K
Tabular data in the source: 0
pressure (bar)	uptake (cm3(STP)/g)
0.0644407	0.995129
0.0772297	1.65442
0.0950846	2.80755
0.105287	3.46648
0.133487	4.62103
0.138482	5.44363
0.158888	6.76149
0.171712	7.2564
0.199841	8.7397
0.233035	10.7169
0.25089	11.87
0.284333	12.6965
0.32022	14.1809
0.358728	15.5012
0.402409	16.8222
0.451262	18.144
0.502737	19.3017
0.567142	20.4613
0.636755	21.4571
0.724435	22.6198
0.814773	23.4541
0.912833	24.4538
1.0342	25.2924
1.16075	26.1316
1.19433	26.3006
