Adsorption isotherm of Carbon Dioxide on Cu3(cdm)4
DOI: 10.1021/Cm502189c
Adsorbate Carbon Dioxide: InChIKey CURLTUGMZLYLDI-UHFFFAOYSA-N
Temperature: 273 K
Tabular data in the source: 0
pressure (bar)	uptake (cm3(STP)/g)
0.0073687	1.80923
0.00758126	0.822956
0.00967142	3.12461
0.0146311	4.11159
0.0187052	9.20804
0.0189886	7.89301
0.0192011	6.90674
0.026251	10.1954
0.0311753	11.3467
0.0333717	13.1553
0.0382606	14.471
0.0429014	16.9374
0.0431494	15.7867
0.0528563	18.747
0.0604021	19.7343
0.0677708	21.5435
0.0753166	22.5309
0.082827	23.6826
0.0955451	24.6706
0.100399	26.1507
0.118183	27.6326
0.133451	28.7854
0.151271	30.1029
0.174334	31.0924
0.197361	32.2462
0.210114	33.0699
0.248517	34.8834
0.274307	35.2157
0.317952	36.7011
0.35143	37.3632
0.400319	38.5206
0.441555	39.1838
0.50341	40.1785
0.567886	41.0093
0.637605	41.512
0.720184	42.3452
0.813143	43.0155
0.906067	43.8501
1.04554	44.6912
1.15147	45.1988
1.19277	45.5333
