Adsorption isotherm of Argon on Cu3(cdm)4
DOI: 10.1021/Cm502189c
Adsorbate Argon: InChIKey XKRFYHLGVUSROY-UHFFFAOYSA-N
Temperature: 87 K
Tabular data in the source: 0
pressure (bar)	uptake (cm3(STP)/g)
0.0284829	-0.160482
0.0491719	-0.157648
0.0775839	0.0106279
0.106031	0.0145248
0.129307	0.0177132
0.162926	0.0223187
0.193924	0.190949
0.227544	0.195554
0.248233	0.198388
0.276681	0.202285
0.305128	0.206182
0.34392	0.211496
0.387884	0.217518
0.431778	0.552298
0.493916	0.232043
0.553326	0.568949
0.623151	0.578514
0.705907	0.58985
0.783456	0.764857
0.884244	1.10743
0.987335	2.76539
