Adsorption isotherm of Carbon Dioxide on activated-[Zn2(TCPPE)]
DOI: 10.1039/c4cc08945f
Article source: Figure 3b
Adsorbate Carbon Dioxide: InChIKey CURLTUGMZLYLDI-UHFFFAOYSA-N
Kind: experiment
Temperature: 273 K
Tabular data in the source: 0
pressure (bar)	uptake (cm3(STP)/g)
0	0
0.008888	0.416667
0.026664	0.420124
0.039997	1.25259
0.057773	1.87846
0.079993	2.50519
0.111102	3.54858
0.133322	4.59025
0.155543	5.63192
0.186651	8.33506
0.213316	7.92531
0.23998	9.17531
0.266645	11.6701
0.333306	13.3428
0.395523	17.5043
0.399967	16.2604
0.466628	19.5928
0.533289	23.9627
0.599951	26.0503
0.662168	30.4193
0.666612	29.5902
0.715497	32.9193
0.733273	32.9227
0.782158	36.2517
0.804378	36.4635
0.84882	39.3767
0.866595	40.0026
0.933257	43.5425
0.959921	45
