Adsorption isotherm of Nitrogen on activated-[Zn2(TCPPE)]
DOI: 10.1039/c4cc08945f
Article source: Figure 3a
Adsorbate Nitrogen: InChIKey IJGRMHOSHXDMSA-UHFFFAOYSA-N
Kind: experiment
Temperature: 77 K
Tabular data in the source: 0
pressure (bar)	uptake (cm3(STP)/g)
0	0
0.004444	113.636
0.013332	351.24
0.02222	355.372
0.062217	361.57
0.079993	365.702
0.09777	367.769
0.133322	369.835
0.199984	373.967
0.244424	373.967
0.293309	376.033
0.342195	378.099
0.391079	378.099
0.439964	380.165
0.497736	382.231
0.542178	382.231
0.586618	382.231
0.639947	384.298
0.688833	384.298
0.737717	384.298
0.791046	386.364
0.808823	386.364
0.839931	388.43
0.902148	386.364
0.928813	388.43
0.951032	388.43
0.964365	390.496
