Adsorption isotherm of Phosphate Ion, Water on l-Y(OH)3
DOI: 10.1021/acsami.7b13437
Article source: Figure 4
Adsorbate Phosphate Ion: InChIKey NBIIXXVUZAFLBC-UHFFFAOYSA-K
Adsorbate Water: InChIKey XLYOFNOQVPJJNP-UHFFFAOYSA-N
Kind: experiment
Temperature: 298 K
Tabular data in the source: 0
pressure (bar)	Phosphate Ion fraction	Phosphate Ion uptake (mg/g)	Water fraction	Water uptake (mg/g)	total uptake (mg/g)
1.01325	0.197	0.386			
1.01325	0.243	6.528			
1.01325	0.312	12.798			
1.01325	0.451	30.193			
1.01325	0.782	38.747			
1.01325	1.136	47.622			
1.01325	1.579	60.227			
1.01325	2.636	77.334			
1.01325	8.062	84.414			
1.01325	14.973	89.18			
1.01325	35.791	91.26			
1.01325	54.158	91.666			
