Adsorption isotherm of Phosphate Ion, Water on l-Y(OH)3
DOI: 10.1021/acsami.7b13437
Article source: Figure 4
Adsorbate Phosphate Ion: InChIKey NBIIXXVUZAFLBC-UHFFFAOYSA-K
Adsorbate Water: InChIKey XLYOFNOQVPJJNP-UHFFFAOYSA-N
Kind: experiment
Temperature: 298 K
Tabular data in the source: 0
pressure (bar)	Phosphate Ion fraction	Phosphate Ion uptake (mg/g)	Water fraction	Water uptake (mg/g)	total uptake (mg/g)
1.01325	0.329	1.962			
1.01325	0.484	6.624			
1.01325	0.53	13.162			
1.01325	0.762	39.009			
1.01325	1.372	47.76			
1.01325	1.872	57.079			
1.01325	5.899	68.345			
1.01325	10.252	68.836			
1.01325	15.267	70.867			
1.01325	25.959	76.712			
1.01325	41.717	77.134			
1.01325	61.112	78.046			
