Adsorption isotherm of Phosphate Ion, Water on l-Y(OH)3
DOI: 10.1021/acsami.7b13437
Article source: Figure 4
Adsorbate Phosphate Ion: InChIKey NBIIXXVUZAFLBC-UHFFFAOYSA-K
Adsorbate Water: InChIKey XLYOFNOQVPJJNP-UHFFFAOYSA-N
Kind: experiment
Temperature: 298 K
Tabular data in the source: 0
pressure (bar)	Phosphate Ion fraction	Phosphate Ion uptake (mg/g)	Water fraction	Water uptake (mg/g)	total uptake (mg/g)
1.01325	0.36	1.576			
1.01325	0.417	6.68			
1.01325	0.475	12.919			
1.01325	2.002	31.017			
1.01325	4.019	40.717			
1.01325	12.768	45.729			
1.01325	22.14	46.147			
1.01325	29.499	47.686			
1.01325	34.914	48.305			
1.01325	46.022	48.521			
1.01325	55.324	48.531			
1.01325	65.529	49.563			
1.01325	74.346	50.185			
