Adsorption isotherm of Carbon Dioxide on MCM-41
DOI: 10.1016/j.ces.2009.05.039
Adsorbate Carbon Dioxide: InChIKey CURLTUGMZLYLDI-UHFFFAOYSA-N
Temperature: 298 K
Tabular data in the source: 0
pressure (bar)	uptake (mmol/g)
0.200586	0.13153
1.00171	0.597637
1.9849	1.18027
3.9877	2.24358
6.02692	3.17579
7.95689	4.02061
9.95969	4.7052
12.181	5.46262
15.9317	6.72985
19.9737	7.96794
24.9261	9.46822
