Adsorption isotherm of Hydrogen on MCM-41
DOI: 10.1016/j.ces.2009.05.039
Adsorbate Hydrogen: InChIKey UFHFLCQGNIYNRP-UHFFFAOYSA-N
Temperature: 298 K
Tabular data in the source: 0
pressure (bar)	uptake (mmol/g)
2.02131	0.0441353
3.07734	0.0441353
3.9877	0.102399
6.06333	0.13153
7.9933	0.116964
9.9961	0.175228
12.0353	0.204359
16.0409	0.233491
20.0465	0.320886
24.9625	0.335452
