Adsorption isotherm of Nitrogen on MCM-41
DOI: 10.1016/j.ces.2009.05.039
Adsorbate Nitrogen: InChIKey IJGRMHOSHXDMSA-UHFFFAOYSA-N
Temperature: 298 K
Tabular data in the source: 0
pressure (bar)	uptake (mg/g)
1.11095	3.95247
4.06053	8.54071
8.06613	16.4063
12.0353	22.9609
16.0045	27.5491
24.9625	40.6584
