Adsorption isotherm of Carbon Dioxide on MCM-41
DOI: 10.1016/j.ces.2009.05.039
Adsorbate Carbon Dioxide: InChIKey CURLTUGMZLYLDI-UHFFFAOYSA-N
Temperature: 298 K
Tabular data in the source: 0
pressure (bar)	uptake (mg/g)
0.382659	9.85163
0.783219	22.3054
1.03812	28.2046
1.51151	43.9357
1.9849	55.0785
4.02412	101.616
6.09975	141.6
8.10255	177.65
10.0325	209.768
12.0353	241.23
16.0045	297.6
19.9737	350.036
24.9625	414.927
