Adsorption isotherm of Nitrogen on MCM-41
DOI: 10.1016/j.ces.2009.05.039
Adsorbate Nitrogen: InChIKey IJGRMHOSHXDMSA-UHFFFAOYSA-N
Temperature: 298 K
Tabular data in the source: 0
pressure (bar)	uptake (mmol/g)
1.69358	0.0878327
3.95129	0.277188
7.92047	0.524808
12.0353	0.743295
15.8953	0.961782
24.8897	1.35506
