Adsorption isotherm of Nitrogen on MCM-41
DOI: 10.1016/j.ces.2009.05.039
Article source: Figure 4
Adsorbate Nitrogen: InChIKey IJGRMHOSHXDMSA-UHFFFAOYSA-N
Kind: experiment
Temperature: 298 K
Tabular data in the source: 0
pressure (bar)	uptake (mg/g)
1.98981	4.31595
4.00949	6.29067
8.00895	14.4016
12.0085	21.4727
16.0081	27.5039
25.0371	38.4729
