Adsorption isotherm of Methane on MCM-41
DOI: 10.1016/j.ces.2009.05.039
Adsorbate Methane: InChIKey VNWKTOKETHGBQD-UHFFFAOYSA-N
Temperature: 298 K
Tabular data in the source: 0
pressure (bar)	uptake (mmol/g)
1.00171	0.189794
2.05773	0.277188
4.09694	0.495676
8.06613	0.961782
11.9989	1.42789
16.0409	1.74834
19.9737	2.09792
24.8897	2.50576
