Adsorption isotherm of Carbon Dioxide on MCM-41
DOI: 10.1016/j.ces.2009.05.039
Adsorbate Carbon Dioxide: InChIKey CURLTUGMZLYLDI-UHFFFAOYSA-N
Temperature: 298 K
Tabular data in the source: 0
pressure (bar)	uptake (mg/g)
0.601146	5.2634
2.02131	12.4735
4.02412	24.2718
6.09975	34.7592
8.13896	45.9021
12.0717	63.5995
16.0773	76.7088
19.9737	91.7844
24.9989	108.826
