Adsorption isotherm of Nitrogen on MCM-41
DOI: 10.1016/j.ces.2009.05.039
Adsorbate Nitrogen: InChIKey IJGRMHOSHXDMSA-UHFFFAOYSA-N
Temperature: 298 K
Tabular data in the source: 0
pressure (bar)	uptake (mg/g)
1.07454	3.29701
2.02131	5.2634
4.13336	6.57432
6.06333	8.54071
7.9933	11.818
12.0353	15.7508
16.0409	19.0281
19.9737	20.9945
25.0353	24.2718
