Adsorption isotherm of Nitrogen on MCM-41
DOI: 10.1016/j.ces.2009.05.039
Adsorbate Nitrogen: InChIKey IJGRMHOSHXDMSA-UHFFFAOYSA-N
Temperature: 298 K
Tabular data in the source: 0
pressure (bar)	uptake (mg/g)
1.25661	5.2634
3.11375	7.22978
4.64316	9.19617
7.55633	15.0953
8.9765	17.7172
10.3967	20.339
13.1642	24.2718
14.73	26.2382
19.0633	30.171
21.9765	35.4147
24.8897	40.0029
