Adsorption isotherm of Oxygen on MCM-41
DOI: 10.1016/j.ces.2009.05.039
Adsorbate Oxygen: InChIKey MYMOFIZGZYHOMD-UHFFFAOYSA-N
Temperature: 298 K
Tabular data in the source: 0
pressure (bar)	uptake (mmol/g)
1.40227	0.102399
3.00451	0.204359
3.95129	0.262623
4.97089	0.277188
5.9905	0.320886
7.9933	0.524808
9.12216	0.539373
