Adsorption isotherm of Carbon Dioxide on MCM-41
DOI: 10.1016/j.ces.2009.05.039
Adsorbate Carbon Dioxide: InChIKey CURLTUGMZLYLDI-UHFFFAOYSA-N
Temperature: 298 K
Tabular data in the source: 0
pressure (bar)	uptake (mg/g)
1.00171	11.818
2.13056	18.3726
3.95129	30.171
6.02692	43.2802
8.06613	55.734
12.1081	75.3979
16.0409	95.7172
19.9373	110.793
24.9625	129.146
