Adsorption isotherm of Carbon Dioxide on MCM-41
DOI: 10.1016/j.ces.2009.05.039
Article source: Figure 4
Adsorbate Carbon Dioxide: InChIKey CURLTUGMZLYLDI-UHFFFAOYSA-N
Kind: experiment
Temperature: 298 K
Tabular data in the source: 0
pressure (bar)	uptake (mg/g)
0.223199	5.53365
0.420021	11.7628
0.57746	16.9542
0.813756	23.1805
1.01067	28.3692
1.52255	42.9002
1.99514	55.3529
4.0043	100.994
5.97444	141.435
7.9845	176.672
9.99466	210.867
11.9657	240.904
15.9476	296.813
19.9298	350.641
24.9371	416.883
