Adsorption isotherm of Carbon monoxide on coal from Staszic mine
DOI: 10.1016/j.coal.2017.05.005
Article source: Figure 1
Adsorbate Carbon monoxide: InChIKey UGFAIRIUMAVXCW-UHFFFAOYSA-N
Kind: experiment
Temperature: 298 K
Tabular data in the source: 0
pressure (bar)	uptake (cm3(STP)/g)
0.0009	0.0234
0.05895	0.0561
0.10073	0.0515
0.15268	0.131
0.20418	0.1451
0.25522	0.1965
0.30536	0.1872
0.3555	0.2527
0.40587	0.2574
0.45691	0.3088
0.50796	0.3743
0.55742	0.379
0.60756	0.3977
0.65928	0.4398
0.71123	0.482
0.76024	0.5334
0.81015	0.5755
0.8612	0.5662
0.91157	0.627
0.96125	0.6457
1.00394	0.6972
