Adsorption isotherm of Hydrogen on coal from Staszic mine
DOI: 10.1016/j.coal.2017.05.005
Article source: Figure 1
Adsorbate Hydrogen: InChIKey UFHFLCQGNIYNRP-UHFFFAOYSA-N
Kind: experiment
Temperature: 298 K
Tabular data in the source: 0
pressure (bar)	uptake (cm3(STP)/g)
0.0009	0.0234
0.01423	-0.0234
0.06076	0.0047
0.10164	0.0047
0.15404	0
0.2044	0.0047
0.255	0.0234
0.30469	0.0187
0.35709	0.0281
0.40745	0.0468
0.45692	0.0468
0.50819	0.0608
0.55855	0.0608
0.60982	0.0561
0.66019	0.0608
0.71011	0.0608
0.76092	0.0655
0.81152	0.0561
0.86279	0.0702
0.91316	0.0842
0.96284	0.0983
1.00237	0.1029
1.02834	0.1029
