Adsorption isotherm of Acetylene on coal from Borynia mine
DOI: 10.1016/j.coal.2017.05.005
Article source: Figure 5
Adsorbate Acetylene: InChIKey HSFWRNGVRCDJHI-UHFFFAOYSA-N
Kind: experiment
Temperature: 298 K
Tabular data in the source: 0
pressure (bar)	uptake (cm3(STP)/g)
0.00022	0.0065
0.00891	0.101
0.05194	0.4335
0.1054	0.8361
0.1619	1.1963
0.20494	1.4261
0.25558	1.6837
0.30731	1.9135
0.35534	2.1222
0.40751	2.3064
0.45576	2.4858
0.50793	2.6749
0.55966	2.8314
0.60726	2.988
0.66204	3.1364
0.70768	3.2717
0.76246	3.4234
0.81376	3.5408
0.86006	3.6582
0.91353	3.7936
0.96266	3.898
1.00526	3.9926
1.02243	4.1018
