Adsorption isotherm of Propene on coal from Brzeszcze mine
DOI: 10.1016/j.coal.2017.05.005
Article source: Figure 1
Adsorbate Propene: InChIKey QQONPFPTGQHPMA-UHFFFAOYSA-N
Kind: experiment
Temperature: 298 K
Tabular data in the source: 0
pressure (bar)	uptake (cm3(STP)/g)
0.00199	0.0232
0.01085	0.4306
0.03167	1.3148
0.07838	1.9311
0.11379	2.2758
0.12286	2.3454
0.14234	2.4946
0.16159	2.657
0.18439	2.7631
0.2043	2.8262
0.25299	3.0385
0.31075	3.2079
0.3508	3.3373
0.40834	3.4968
0.45636	3.6097
0.50593	3.7294
0.55616	3.8291
0.60883	3.9024
0.6595	4.0021
0.70885	4.0853
0.76041	4.1752
0.81086	4.2219
0.83011	4.2651
0.86109	4.3118
0.88699	4.3451
0.91155	4.3883
0.93633	4.4217
0.96311	4.4417
0.98723	4.4684
1.00272	4.558
1.00759	4.6275
