Adsorption isotherm of Hydrogen on coal from Borynia mine
DOI: 10.1016/j.coal.2017.05.005
Article source: Figure 5
Adsorbate Hydrogen: InChIKey UFHFLCQGNIYNRP-UHFFFAOYSA-N
Kind: experiment
Temperature: 298 K
Tabular data in the source: 0
pressure (bar)	uptake (cm3(STP)/g)
0.00022	0.0065
0.01391	0.0066
0.06109	0.0034
0.10435	0.0019
0.1537	0.0004
0.20413	0.0038
0.2563	0.0088
0.30739	0.0122
0.35609	0.0156
0.40543	0.0321
0.45826	0.0306
0.50956	0.0356
0.55848	0.039
0.61	0.0375
0.65913	0.0441
0.71022	0.0541
0.76152	0.0477
0.81195	0.0625
0.86304	0.0626
0.91282	0.0546
0.96304	0.0662
1.00652	0.0646
