Adsorption isotherm of Carbon monoxide on coal from Borynia mine
DOI: 10.1016/j.coal.2017.05.005
Article source: Figure 5
Adsorbate Carbon monoxide: InChIKey UGFAIRIUMAVXCW-UHFFFAOYSA-N
Kind: experiment
Temperature: 298 K
Tabular data in the source: 0
pressure (bar)	uptake (cm3(STP)/g)
0.00022	0.0065
0.02022	0.0115
0.06022	0.0181
0.10326	0.0361
0.15456	0.0379
0.20369	0.0429
0.25413	0.0593
0.30652	0.0741
0.35521	0.0906
0.40652	0.1086
0.45717	0.1137
0.50825	0.1382
0.56021	0.1416
0.60891	0.1581
0.65869	0.1696
0.71021	0.186
0.76151	0.1976
0.81021	0.2189
0.86347	0.219
0.91303	0.2371
0.95195	0.2535
0.99499	0.265
1.00629	0.2748
