Adsorption isotherm of Hydrogen on coal from Brzeszcze mine
DOI: 10.1016/j.coal.2017.05.005
Article source: Figure 2
Adsorbate Hydrogen: InChIKey UFHFLCQGNIYNRP-UHFFFAOYSA-N
Kind: experiment
Temperature: 298 K
Tabular data in the source: 0
pressure (bar)	uptake (cm3(STP)/g)
0.00199	0.0232
0.01341	0.023
0.05913	0.0109
0.10346	0.0321
0.15253	0.045
0.20494	0.0455
0.25317	0.0417
0.3067	0.0546
0.35549	0.0467
0.40679	0.0596
0.45669	0.0517
0.5066	0.073
0.5579	0.0776
0.60697	0.0822
0.65854	0.0826
0.70956	0.0955
0.76002	0.0959
0.81021	0.1047
0.86123	0.101
0.91057	0.1097
0.96271	0.0976
1.00536	0.1355
