Adsorption isotherm of Acetylene on coal from Brzeszcze mine
DOI: 10.1016/j.coal.2017.05.005
Article source: Figure 1
Adsorbate Acetylene: InChIKey HSFWRNGVRCDJHI-UHFFFAOYSA-N
Kind: experiment
Temperature: 298 K
Tabular data in the source: 0
pressure (bar)	uptake (cm3(STP)/g)
0.00199	0.0232
0.01152	0.6392
0.05094	1.9044
0.09743	3.1697
0.16052	4.2431
0.20789	4.866
0.25968	5.4591
0.3128	5.9595
0.35242	6.2877
0.40819	6.659
0.45267	6.9938
0.51353	7.289
0.57041	7.5974
0.60869	7.8295
0.66048	8.0783
0.70872	8.2774
0.7594	8.4765
0.81052	8.659
0.86075	8.8118
0.9101	9.0142
0.96476	9.1868
0.99995	9.3063
1.00615	9.3858
