Adsorption isotherm of Carbon Dioxide on coal from Marcel mine
DOI: 10.1016/j.coal.2017.05.005
Article source: Figure 3
Adsorbate Carbon Dioxide: InChIKey CURLTUGMZLYLDI-UHFFFAOYSA-N
Kind: experiment
Temperature: 298 K
Tabular data in the source: 0
pressure (bar)	uptake (cm3(STP)/g)
0.00024	0.008
0.05787	0.777
0.1221	1.4745
0.19732	2.0103
0.26815	2.6866
0.3551	3.0818
0.43179	3.676
0.51362	4.164
0.60106	4.6203
0.6929	5.0023
0.78084	5.4082
0.86682	5.8087
0.95988	6.204
1.01142	6.4587
