Adsorption isotherm of Propene on coal from Staszic mine
DOI: 10.1016/j.coal.2017.05.005
Article source: Figure 1
Adsorbate Propene: InChIKey QQONPFPTGQHPMA-UHFFFAOYSA-N
Kind: experiment
Temperature: 298 K
Tabular data in the source: 0
pressure (bar)	uptake (cm3(STP)/g)
0.0009	0.0234
0.00812	0.744
0.05079	1.8249
0.10724	2.4191
0.16461	2.8496
0.20594	3.0742
0.25743	3.3082
0.31073	3.4485
0.35206	3.5983
0.40875	3.7246
0.45618	3.893
0.50609	3.996
0.55555	4.0568
0.60614	4.1738
0.66148	4.2393
0.70688	4.3282
0.76063	4.4124
0.81032	4.4826
0.86136	4.5388
0.91105	4.6324
0.9639	4.6838
1.00433	4.754
