Adsorption isotherm of Carbon monoxide on coal from Marcel mine
DOI: 10.1016/j.coal.2017.05.005
Article source: Figure 3
Adsorbate Carbon monoxide: InChIKey UGFAIRIUMAVXCW-UHFFFAOYSA-N
Kind: experiment
Temperature: 298 K
Tabular data in the source: 0
pressure (bar)	uptake (cm3(STP)/g)
0.00024	0.0106
0.01905	0.0292
0.05936	0.0452
0.10138	0.032
0.15366	0.0534
0.20081	0.0614
0.25309	0.1013
0.30488	0.1094
0.35667	0.1122
0.40651	0.1361
0.45781	0.1654
0.50838	0.1841
0.55773	0.1842
0.60806	0.1923
0.65862	0.2056
0.70993	0.2402
0.75927	0.2456
0.81107	0.2696
0.86286	0.2803
0.91221	0.2857
0.96155	0.3124
1.00504	0.3443
