Adsorption isotherm of Acetylene on coal from Marcel mine
DOI: 10.1016/j.coal.2017.05.005
Article source: Figure 3
Adsorbate Acetylene: InChIKey HSFWRNGVRCDJHI-UHFFFAOYSA-N
Kind: experiment
Temperature: 298 K
Tabular data in the source: 0
pressure (bar)	uptake (cm3(STP)/g)
0.00024	0.008
0.00927	0.3182
0.05029	1.0978
0.10499	1.7953
0.1592	2.3045
0.20439	2.6493
0.25665	2.9862
0.30868	3.2727
0.35582	3.5061
0.40614	3.7369
0.45597	3.9306
0.50653	4.1481
0.56198	4.2596
0.60888	4.501
0.66726	4.6655
0.70562	4.769
0.7596	4.9415
0.81041	5.0715
0.86073	5.2121
0.91178	5.321
0.96064	5.4457
1.00241	5.5677
