Adsorption isotherm of Acetylene on coal from Marcel-1 mine
DOI: 10.1016/j.coal.2017.05.005
Article source: Figure 6
Adsorbate Acetylene: InChIKey HSFWRNGVRCDJHI-UHFFFAOYSA-N
Kind: experiment
Temperature: 298 K
Tabular data in the source: 0
pressure (bar)	uptake (cm3(STP)/g)
0.00022	0.0099
0.00697	0.2721
0.02919	0.7787
0.06885	1.3429
0.08541	1.5953
0.10219	1.8079
0.12158	2.0066
0.14316	2.1735
0.16256	2.3523
0.18196	2.5133
0.20332	2.6465
0.25346	2.8791
0.30948	3.1038
0.35483	3.2073
0.39755	3.4161
0.45924	3.6329
0.50197	3.782
0.55821	3.9333
0.60574	4.0467
0.65763	4.1562
0.72913	4.3452
0.78952	4.5004
0.81372	4.5443
0.83443	4.6079
0.85884	4.6517
0.88784	4.7154
0.90702	4.7811
0.93602	4.8567
0.96239	4.9164
0.98616	4.996
1.00251	4.9921
