Adsorption isotherm of Ethene on coal from Marcel mine
DOI: 10.1016/j.coal.2017.05.005
Article source: Figure 3
Adsorbate Ethene: InChIKey VGGSQFUCUMXWEO-UHFFFAOYSA-N
Kind: experiment
Temperature: 298 K
Tabular data in the source: 0
pressure (bar)	uptake (cm3(STP)/g)
0.00024	0.0106
0.01074	0.1485
0.0337	0.3103
0.06179	0.5304
0.08914	0.7241
0.10404	0.8461
0.12285	0.9416
0.14483	1.0344
0.16413	1.114
0.18172	1.2042
0.20541	1.2811
0.25465	1.4401
0.30898	1.6155
0.35466	1.6686
0.40499	1.8119
0.45775	1.9181
0.50929	2.0295
0.55473	2.0906
0.61018	2.1968
0.65782	2.2579
0.70863	2.3322
0.75798	2.4199
0.81221	2.4969
0.84812	2.5473
0.8618	2.5871
0.88818	2.6058
0.92629	2.6456
0.93484	2.6695
0.96367	2.7173
1.00495	2.7704
