Adsorption isotherm of Carbon Dioxide on coal from Borynia mine
DOI: 10.1016/j.coal.2017.05.005
Article source: Figure 5
Adsorbate Carbon Dioxide: InChIKey CURLTUGMZLYLDI-UHFFFAOYSA-N
Kind: experiment
Temperature: 298 K
Tabular data in the source: 0
pressure (bar)	uptake (cm3(STP)/g)
0.00022	0.0065
0.01173	0.119
0.05411	0.5606
0.10191	0.9762
0.15255	1.3706
0.20471	1.7161
0.25665	2.0258
0.3086	2.3094
0.3612	2.4578
0.40858	2.7724
0.469	3.0414
0.50182	3.1913
0.55963	3.4147
0.60593	3.6054
0.66136	3.7929
0.70896	3.9641
0.76178	4.1337
0.81112	4.2886
0.86176	4.4403
0.9148	4.5903
0.96088	4.7322
1.00414	4.8561
1.0074	4.8789
