Adsorption isotherm of Propene on coal from Marcel-1 mine
DOI: 10.1016/j.coal.2017.05.005
Article source: Figure 6
Adsorbate Propene: InChIKey QQONPFPTGQHPMA-UHFFFAOYSA-N
Kind: experiment
Temperature: 298 K
Tabular data in the source: 0
pressure (bar)	uptake (cm3(STP)/g)
0.00022	0.0099
0.00697	0.145
0.02855	0.3914
0.06582	0.6081
0.07563	0.6816
0.10288	0.7731
0.12075	0.8228
0.14059	0.8964
0.16217	0.9502
0.18136	0.988
0.20185	1.0397
0.25156	1.1135
0.30563	1.1753
0.35381	1.2292
0.40591	1.2811
0.4554	1.3369
0.50533	1.3729
0.55591	1.4268
0.60714	1.4747
0.6575	1.5127
0.7083	1.5606
0.75932	1.5966
0.80968	1.6286
0.82908	1.6367
0.862	1.6647
0.88577	1.6985
0.91149	1.7225
0.93504	1.7564
0.96294	1.7565
1.00524	1.7865
1.02333	1.8224
