Adsorption isotherm of Propene on coal from Borynia mine
DOI: 10.1016/j.coal.2017.05.005
Article source: Figure 5
Adsorbate Propene: InChIKey QQONPFPTGQHPMA-UHFFFAOYSA-N
Kind: experiment
Temperature: 298 K
Tabular data in the source: 0
pressure (bar)	uptake (cm3(STP)/g)
0.00022	0.0065
0.0126	0.1353
0.03129	0.2999
0.09932	0.6894
0.12605	0.8052
0.14779	0.846
0.16605	0.8884
0.1867	0.9389
0.20583	0.9764
0.25561	1.0385
0.308	1.1038
0.35604	1.1577
0.4069	1.2165
0.45777	1.2622
0.50777	1.3161
0.55907	1.3391
0.60885	1.3848
0.65929	1.4224
0.71102	1.4666
0.76015	1.5026
0.81167	1.5516
0.85058	1.594
0.86145	1.625
0.88928	1.6593
0.93188	1.6822
0.95623	1.7149
0.96297	1.7442
0.98927	1.7736
1.01035	1.8698
