Adsorption isotherm of Hydrogen on coal from Marcel mine
DOI: 10.1016/j.coal.2017.05.005
Article source: Figure 3
Adsorbate Hydrogen: InChIKey UFHFLCQGNIYNRP-UHFFFAOYSA-N
Kind: experiment
Temperature: 298 K
Tabular data in the source: 0
pressure (bar)	uptake (cm3(STP)/g)
0.00024	0.0106
0.01441	0.0053
0.06156	0.016
0.10138	0.0108
0.15415	0.0269
0.20277	0.019
0.25773	0.035
0.3066	0.0298
0.35643	0.03
0.40603	0.0274
0.45684	0.0434
0.50839	0.0409
0.55725	0.0463
0.61001	0.0623
0.65936	0.0651
0.70993	0.044
0.75977	0.0706
0.80985	0.0734
0.86067	0.0735
0.91246	0.0789
0.96229	0.0817
1.0048	0.0871
