Adsorption isotherm of Carbon Dioxide on coal from Bielszowice mine
DOI: 10.1016/j.coal.2017.05.005
Article source: Figure 4
Adsorbate Carbon Dioxide: InChIKey CURLTUGMZLYLDI-UHFFFAOYSA-N
Kind: experiment
Temperature: 298 K
Tabular data in the source: 0
pressure (bar)	uptake (cm3(STP)/g)
0.00168	0.0043
0.06444	0.6652
0.1332	1.2729
0.20701	1.8977
0.28636	2.3946
0.36858	2.8596
0.45682	3.299
0.54194	3.6787
0.6309	4.0477
0.71986	4.4317
0.80809	4.8114
0.8985	5.1741
0.98866	5.5474
