Adsorption isotherm of Ethene on coal from Brzeszcze mine
DOI: 10.1016/j.coal.2017.05.005
Article source: Figure 1
Adsorbate Ethene: InChIKey VGGSQFUCUMXWEO-UHFFFAOYSA-N
Kind: experiment
Temperature: 298 K
Tabular data in the source: 0
pressure (bar)	uptake (cm3(STP)/g)
0.00199	0.0232
0.00952	0.2021
0.03276	0.5367
0.06353	0.9343
0.08389	1.2656
0.10647	1.4413
0.12484	1.5772
0.14564	1.7396
0.16268	1.9517
0.18415	2.0677
0.20562	2.2169
0.25143	2.4193
0.31162	2.6946
0.35256	2.9102
0.4101	3.063
0.45126	3.2289
0.50946	3.4413
0.55593	3.5642
0.60926	3.7004
0.66038	3.8002
0.70774	3.9198
0.76129	4.0394
0.80754	4.159
0.85711	4.2985
0.88477	4.3716
0.90889	4.4115
0.93788	4.4713
0.95758	4.5046
0.98834	4.581
1.0025	4.6772
1.00582	4.75
