Adsorption isotherm of Hydrogen on coal from Bielszowice mine
DOI: 10.1016/j.coal.2017.05.005
Article source: Figure 4
Adsorbate Hydrogen: InChIKey UFHFLCQGNIYNRP-UHFFFAOYSA-N
Kind: experiment
Temperature: 298 K
Tabular data in the source: 0
pressure (bar)	uptake (cm3(STP)/g)
0.00168	0.0043
0.01106	-0.0085
0.05698	0.0151
0.10002	0.0089
0.15099	0.024
0.20172	0.0284
0.25077	0.0265
0.30319	0.0117
0.3544	0.0119
0.40128	0.0163
0.45418	0.0208
0.50419	0.0146
0.55564	0.0318
0.60781	0.0299
0.65758	0.0428
0.72851	0.0367
0.75929	0.0368
0.8093	0.0498
0.86147	0.0478
0.91148	0.0565
0.95981	0.0631
1.00525	0.0569
