Adsorption isotherm of Ethene on coal from Borynia mine
DOI: 10.1016/j.coal.2017.05.005
Article source: Figure 5
Adsorbate Ethene: InChIKey VGGSQFUCUMXWEO-UHFFFAOYSA-N
Kind: experiment
Temperature: 298 K
Tabular data in the source: 0
pressure (bar)	uptake (cm3(STP)/g)
0.00022	0.0065
0.05477	0.3912
0.15344	0.916
0.20582	1.0628
0.25821	1.221
0.30668	1.3547
0.35841	1.4558
0.40515	1.5619
0.45971	1.6647
0.50818	1.7462
0.55644	1.8197
0.61187	1.9046
0.65687	1.9552
0.711	2.0303
0.76208	2.0988
0.81469	2.169
0.86251	2.2213
0.91186	2.2703
0.96316	2.3177
1.00142	2.3455
1.00772	2.3732
