Adsorption isotherm of Ethene on coal from Staszic mine
DOI: 10.1016/j.coal.2017.05.005
Article source: Figure 1
Adsorbate Ethene: InChIKey VGGSQFUCUMXWEO-UHFFFAOYSA-N
Kind: experiment
Temperature: 298 K
Tabular data in the source: 0
pressure (bar)	uptake (cm3(STP)/g)
0.0009	0.0234
0.00835	0.2948
0.0499	1.0949
0.1068	1.8295
0.15603	2.3443
0.21001	2.6297
0.25314	2.99
0.30689	3.2988
0.35071	3.5094
0.4092	3.8322
0.50654	4.1832
0.56052	4.3516
0.60682	4.506
0.65808	4.6511
0.70845	4.8055
0.75904	4.9552
0.81324	5.0816
0.86	5.1611
0.91126	5.3202
0.96502	5.3904
1.00499	5.5354
