Adsorption isotherm of Ethene on coal from Bielszowice mine
DOI: 10.1016/j.coal.2017.05.005
Article source: Figure 4
Adsorbate Ethene: InChIKey VGGSQFUCUMXWEO-UHFFFAOYSA-N
Kind: experiment
Temperature: 298 K
Tabular data in the source: 0
pressure (bar)	uptake (cm3(STP)/g)
0.00168	0.0043
0.05049	0.3838
0.10747	0.6313
0.15195	0.7636
0.20124	0.9322
0.25294	1.056
0.30655	1.1712
0.35344	1.2631
0.40609	1.3485
0.45298	1.4361
0.50731	1.4959
0.55564	1.5558
0.60781	1.6391
0.65734	1.6862
0.70759	1.7418
0.7576	1.8144
0.8093	1.8551
0.85979	1.915
0.90932	1.9428
0.96077	1.992
1.00429	2.0455
