Adsorption isotherm of Carbon Dioxide on coal from Staszic mine
DOI: 10.1016/j.coal.2017.05.005
Article source: Figure 1
Adsorbate Carbon Dioxide: InChIKey CURLTUGMZLYLDI-UHFFFAOYSA-N
Kind: experiment
Temperature: 298 K
Tabular data in the source: 0
pressure (bar)	uptake (cm3(STP)/g)
0.0009	0.0094
0.06863	1.9278
0.09279	2.4706
0.11875	2.99
0.14879	3.4766
0.17792	3.9305
0.20975	4.4405
0.24453	4.8757
0.2775	5.2968
0.31431	5.7366
0.35134	6.1297
0.39086	6.518
0.42857	6.9251
0.46832	7.2995
0.50784	7.6598
0.54984	8.0294
0.59072	8.3757
0.63453	8.7406
0.67857	9.0869
0.72328	9.4519
0.77048	9.742
0.81633	10.0742
0.8642	10.4064
0.91208	10.6965
0.95996	11.0194
1.01009	11.2721
