Adsorption isotherm of Acetylene on coal from Bielszowice mine
DOI: 10.1016/j.coal.2017.05.005
Article source: Figure 4
Adsorbate Acetylene: InChIKey HSFWRNGVRCDJHI-UHFFFAOYSA-N
Kind: experiment
Temperature: 298 K
Tabular data in the source: 0
pressure (bar)	uptake (cm3(STP)/g)
0.00168	0.0043
0.00842	0.1556
0.0464	0.7568
0.10868	1.373
0.15796	1.8379
0.20629	2.1577
0.25486	2.4798
0.30751	2.7528
0.3556	2.9085
0.40489	3.1155
0.45851	3.299
0.50347	3.4355
0.55612	3.5743
0.60397	3.6938
0.65782	3.8325
0.7088	3.9372
0.75881	4.046
0.80858	4.1421
0.86027	4.2745
0.91292	4.3706
0.95957	4.4816
1.00068	4.5691
