Adsorption isotherm of Carbon Dioxide on coal from Brzeszcze mine
DOI: 10.1016/j.coal.2017.05.005
Article source: Figure 1
Adsorbate Carbon Dioxide: InChIKey CURLTUGMZLYLDI-UHFFFAOYSA-N
Kind: experiment
Temperature: 298 K
Tabular data in the source: 0
pressure (bar)	uptake (cm3(STP)/g)
0.00199	0.0232
0.04339	0.8878
0.08899	1.6994
0.13752	2.4769
0.19795	3.1397
0.2619	3.7589
0.32966	4.281
0.39129	5.0158
0.46183	5.5253
0.53461	6.0349
0.60767	6.5403
0.68211	7.0165
0.7574	7.4886
0.83575	7.9481
0.9141	8.3868
0.99301	8.8255
