Adsorption isotherm of Carbon monoxide on coal from Bielszowice mine
DOI: 10.1016/j.coal.2017.05.005
Article source: Figure 4
Adsorbate Carbon monoxide: InChIKey UGFAIRIUMAVXCW-UHFFFAOYSA-N
Kind: experiment
Temperature: 298 K
Tabular data in the source: 0
pressure (bar)	uptake (cm3(STP)/g)
0.00168	0.0043
0.01563	0.0128
0.05722	0.013
0.0993	0.0153
0.15147	0.0282
0.20317	0.0497
0.25101	0.0584
0.30295	0.0842
0.3544	0.0972
0.40417	0.1101
0.45346	0.1231
0.50587	0.1489
0.55564	0.1469
0.60613	0.1514
0.6583	0.1665
0.70783	0.1901
0.7576	0.1967
0.8093	0.2203
0.85907	0.229
0.90956	0.2483
0.96077	0.2656
1.00333	0.2785
