Adsorption isotherm of Carbon monoxide on coal from Marcel-1 mine
DOI: 10.1016/j.coal.2017.05.005
Article source: Figure 6
Adsorbate Carbon monoxide: InChIKey UGFAIRIUMAVXCW-UHFFFAOYSA-N
Kind: experiment
Temperature: 298 K
Tabular data in the source: 0
pressure (bar)	uptake (cm3(STP)/g)
0.00022	0.0099
0.01199	0.0199
0.05603	0.0142
0.10051	0.0204
0.15109	0.0405
0.20189	0.0586
0.25334	0.0688
0.30349	0.075
0.35363	0.0891
0.40356	0.0993
0.45414	0.1135
0.50625	0.1276
0.55683	0.1438
0.60763	0.142
0.65733	0.1641
0.70901	0.1723
0.75915	0.1845
0.80973	0.2026
0.85988	0.2049
0.91111	0.227
0.96169	0.2371
1.00137	0.2413
1.00617	0.2572
