Adsorption isotherm of Acetylene on coal from Staszic mine
DOI: 10.1016/j.coal.2017.05.005
Article source: Figure 1
Adsorbate Acetylene: InChIKey HSFWRNGVRCDJHI-UHFFFAOYSA-N
Kind: experiment
Temperature: 298 K
Tabular data in the source: 0
pressure (bar)	uptake (cm3(STP)/g)
0.0009	0.0094
0.0106	0.875
0.04964	2.8917
0.09705	4.127
0.15847	5.1377
0.21515	5.9612
0.26573	6.4993
0.31587	7.0328
0.36058	7.496
0.41049	8.0575
0.46085	8.4178
0.52634	8.8997
0.56225	9.2132
0.60493	9.4191
0.6781	9.9806
0.7061	10.1959
0.77115	10.5608
0.81541	10.8322
0.86623	11.0147
0.90936	11.2767
0.96831	11.5434
1.00128	11.6885
