Adsorption isotherm of Propene on coal from Marcel mine
DOI: 10.1016/j.coal.2017.05.005
Article source: Figure 3
Adsorbate Propene: InChIKey QQONPFPTGQHPMA-UHFFFAOYSA-N
Kind: experiment
Temperature: 298 K
Tabular data in the source: 0
pressure (bar)	uptake (cm3(STP)/g)
0.00049	0.0106
0.01417	0.2678
0.06425	0.8962
0.08917	1.1136
0.10529	1.1799
0.12557	1.2727
0.14438	1.3496
0.16441	1.4106
0.18518	1.4636
0.20497	1.5087
0.25446	1.6148
0.30757	1.7261
0.35546	1.803
0.40578	1.8428
0.45611	1.9117
0.50619	1.9939
0.55896	2.0602
0.60879	2.1
0.65839	2.1451
0.70822	2.1875
0.75928	2.2299
0.81132	2.2856
0.82818	2.3121
0.86311	2.336
0.88412	2.3678
0.91246	2.4049
0.93616	2.4341
0.96156	2.458
0.98697	2.4871
1.00871	2.5508
