Adsorption isotherm of Ethene on coal from Marcel-1 mine
DOI: 10.1016/j.coal.2017.05.005
Article source: Figure 6
Adsorbate Ethene: InChIKey VGGSQFUCUMXWEO-UHFFFAOYSA-N
Kind: experiment
Temperature: 298 K
Tabular data in the source: 0
pressure (bar)	uptake (cm3(STP)/g)
0.00022	0.0099
0.01155	0.0557
0.03357	0.2445
0.05842	0.3697
0.07673	0.4651
0.10114	0.5725
0.12163	0.6262
0.14234	0.6839
0.16371	0.7277
0.18028	0.7914
0.20077	0.8352
0.25026	0.9486
0.3065	1.0422
0.3525	1.1358
0.40504	1.2314
0.45519	1.2893
0.50511	1.3789
0.55852	1.4407
0.60518	1.5144
0.6599	1.5425
0.70568	1.6063
0.75931	1.682
0.80859	1.72
0.82973	1.7539
0.86135	1.7838
0.88576	1.8137
0.91192	1.8456
0.937	1.8716
0.96229	1.8757
0.98867	1.9255
1.00414	1.9692
1.0218	2.0388
