Adsorption isotherm of Hydrogen on coal from Marcel-1 mine
DOI: 10.1016/j.coal.2017.05.005
Article source: Figure 6
Adsorbate Hydrogen: InChIKey UFHFLCQGNIYNRP-UHFFFAOYSA-N
Kind: experiment
Temperature: 298 K
Tabular data in the source: 0
pressure (bar)	uptake (cm3(STP)/g)
0.00022	0.0099
0.01308	0.004
0.05647	0.0142
0.10007	0.0065
0.14869	0.0285
0.20254	0.0288
0.25378	0.0271
0.30305	0.0313
0.3545	0.0395
0.40465	0.0378
0.45414	0.034
0.50668	0.0442
0.55792	0.0485
0.60916	0.0507
0.65734	0.0529
0.70988	0.0532
0.75894	0.0594
0.82936	0.0637
0.86097	0.0599
0.91133	0.074
0.98197	0.0764
1.00661	0.0765
