Adsorption isotherm of Propene on coal from Bielszowice mine
DOI: 10.1016/j.coal.2017.05.005
Article source: Figure 4
Adsorbate Propene: InChIKey QQONPFPTGQHPMA-UHFFFAOYSA-N
Kind: experiment
Temperature: 298 K
Tabular data in the source: 0
pressure (bar)	uptake (cm3(STP)/g)
0.00168	0.0043
0.05265	0.5863
0.11204	0.7869
0.15171	0.8872
0.2022	1.0004
0.25414	1.0474
0.30343	1.1286
0.35344	1.1821
0.40489	1.227
0.4549	1.2741
0.50611	1.3169
0.55636	1.3618
0.60829	1.4004
0.65758	1.4411
0.7088	1.4711
0.75905	1.4883
0.80858	1.5311
0.85955	1.5547
0.91028	1.5826
0.96125	1.6105
1.00429	1.6725
