Adsorption isotherm of Carbon Dioxide on coal from Marcel-1 mine
DOI: 10.1016/j.coal.2017.05.005
Article source: Figure 6
Adsorbate Carbon Dioxide: InChIKey CURLTUGMZLYLDI-UHFFFAOYSA-N
Kind: experiment
Temperature: 298 K
Tabular data in the source: 0
pressure (bar)	uptake (cm3(STP)/g)
0.00022	0.0099
0.02855	0.3298
0.07192	0.6836
0.15082	1.3394
0.23409	1.9336
0.32368	2.4505
0.41893	2.9157
0.5179	3.3452
0.61665	3.723
0.71824	4.1029
0.82048	4.4728
0.92294	4.8268
1.02539	5.1868
