Adsorption isotherm of Carbon monoxide on coal from Brzeszcze mine
DOI: 10.1016/j.coal.2017.05.005
Article source: Figure 1
Adsorbate Carbon monoxide: InChIKey UGFAIRIUMAVXCW-UHFFFAOYSA-N
Kind: experiment
Temperature: 298 K
Tabular data in the source: 0
pressure (bar)	uptake (cm3(STP)/g)
0.00199	0.0232
0.03386	0.0334
0.08077	0.0437
0.1237	0.054
0.13919	0.0641
0.1653	0.0742
0.18433	0.0843
0.25381	0.0849
0.30316	0.1052
0.35516	0.1354
0.40561	0.1292
0.45562	0.1594
0.50674	0.2227
0.55674	0.2232
0.60587	0.25
0.65743	0.2737
0.7081	0.2939
0.75944	0.3076
0.81055	0.308
0.83113	0.3248
0.86034	0.3515
0.88513	0.3583
0.91212	0.3685
0.93624	0.3852
0.96191	0.4053
0.99024	0.4155
1.00484	0.4288
