Adsorption isotherm of Nitrogen on Tp-Azo boiling water
DOI: 10.1021/ja502212v
Article source: Figure 3(d)
Adsorbate Nitrogen: InChIKey IJGRMHOSHXDMSA-UHFFFAOYSA-N
Kind: experiment
Temperature: 77 K
Tabular data in the source: 0
pressure (bar)	uptake (cm3(STP)/g)
0.004081	6.1038
0.007974	30.3579
0.005651	54.5933
0.0054	78.835
0.009324	100.059
0.004882	128.833
0.006624	160.657
0.01262	181.887
0.024645	221.317
0.05742	257.778
0.082049	280.579
0.102502	306.398
0.129156	333.751
0.153644	370.187
0.178414	379.352
0.201159	383.966
0.23621	400.737
0.275532	405.4
0.3149	405.518
0.360406	413.23
0.401752	422.445
0.441089	425.593
0.476267	430.243
0.51146	433.379
0.552869	436.533
0.588046	441.184
0.623208	447.349
0.666689	450.51
0.714298	455.198
0.753619	459.861
0.807382	470.627
0.852888	478.339
0.898363	489.081
0.941687	507.393
