Adsorption isotherm of Nitrogen on Tp-Stb 9N HCI
DOI: 10.1021/ja502212v
Article source: Figure 3(f)
Adsorbate Nitrogen: InChIKey IJGRMHOSHXDMSA-UHFFFAOYSA-N
Kind: experiment
Temperature: 77 K
Tabular data in the source: 0
pressure (bar)	uptake (cm3(STP)/g)
0.017141	22.6551
0.041999	28.9753
0.070851	31.5268
0.101759	34.0809
0.128518	35.372
0.163497	36.6733
0.210848	39.2478
0.23559	41.7942
0.262348	43.0853
0.293217	44.3815
0.322031	45.6751
0.350884	48.2267
0.377642	49.5178
0.406494	52.0693
0.435269	52.105
0.47657	58.4456
0.513567	58.4915
0.540325	59.7826
0.571233	62.3367
0.595975	64.8831
0.620716	67.4296
0.655735	69.9888
0.688776	75.0612
0.725811	76.3651
0.754702	80.1745
0.781577	85.2393
0.814695	92.8276
0.843703	100.411
0.866583	109.244
0.891596	120.596
0.920875	136.985
0.954537	162.184
