Adsorption isotherm of Nitrogen on Tp-Azo 9N HCI
DOI: 10.1021/ja502212v
Article source: Figure 3(d)
Adsorbate Nitrogen: InChIKey IJGRMHOSHXDMSA-UHFFFAOYSA-N
Kind: experiment
Temperature: 77 K
Tabular data in the source: 0
pressure (bar)	uptake (cm3(STP)/g)
0.01204	37.9458
0.013719	75.8296
0.01744	116.75
0.018962	169.785
0.026952	198.596
0.043293	221.373
0.059681	239.603
0.084278	265.435
0.113114	282.187
0.141808	312.576
0.155967	345.952
0.182699	365.729
0.213669	376.428
0.246743	384.102
0.27988	385.716
0.331633	390.417
0.370923	398.11
0.401972	401.233
0.439206	407.405
0.466111	410.516
0.499263	410.615
0.532384	413.744
0.563449	415.352
0.59657	418.482
0.63586	426.175
0.664852	427.777
0.700045	430.912
0.734171	437.075
0.766256	440.201
0.797273	446.355
0.844851	454.073
0.884188	457.221
0.915174	466.404
0.946145	477.103
0.974918	499.916
