Adsorption isotherm of Nitrogen on PA@Tp-Azo
DOI: 10.1021/ja502212v
Article source: Figure S9
Adsorbate Nitrogen: InChIKey IJGRMHOSHXDMSA-UHFFFAOYSA-N
Kind: experiment
Temperature: 77 K
Tabular data in the source: 0
pressure (bar)	uptake (cm3(STP)/g)
0.019706	8.52307
0.010764	1.72846
0.035844	13.6348
0.052003	15.3568
0.069973	14.5394
0.082549	14.5604
0.095119	15.4289
0.104087	17.9863
0.114856	19.6992
0.129228	19.7232
0.139997	21.4362
0.152573	21.4572
0.165143	22.3257
0.174126	22.3407
0.183114	21.5083
0.197481	22.3798
0.20826	22.3978
0.219039	22.4158
0.229818	22.4339
0.240602	21.6044
0.253173	22.4729
0.262145	24.1829
0.269332	24.1949
0.280106	25.0604
0.289083	25.9228
0.296269	25.9348
0.303455	25.9469
0.32141	27.6718
0.323202	28.5223
0.312438	25.9619
0.330393	27.6868
0.335772	29.3908
0.341162	29.3998
0.350145	29.4148
0.359127	29.4298
0.364517	29.4388
0.371703	29.4509
0.377093	29.4599
0.384279	29.4719
0.393256	30.3344
0.398646	30.3434
0.405832	30.3554
0.41482	29.523
0.423797	30.3855
0.438169	30.4095
0.445355	30.4215
0.456135	30.4396
0.465117	30.4546
0.4741	30.4696
0.481281	31.3291
0.488462	32.1885
0.499241	32.2066
0.506422	33.066
0.520789	33.9375
0.533365	33.9586
0.544139	34.8241
0.553121	34.8391
0.560308	34.8511
0.571092	34.0217
0.585459	34.8932
0.592645	34.9052
0.599831	34.9172
0.61601	33.2494
0.623196	33.2614
0.637573	32.438
0.646551	33.3004
0.659122	34.1689
0.669906	33.3395
0.678888	33.3545
0.687871	33.3696
0.69864	35.0825
0.70403	35.0915
0.7166	35.96
0.723786	35.972
0.732769	35.987
0.745345	36.0081
0.752531	36.0201
0.759717	36.0321
0.770501	35.2027
0.781275	36.0682
0.788451	37.7751
0.799225	38.6406
0.811796	39.5091
0.820773	40.3715
0.829751	41.234
0.838728	42.0965
0.847711	42.1115
0.856688	42.974
0.867463	43.8395
0.874644	44.6989
0.885433	43.0221
0.894415	43.0371
0.901597	43.8966
0.910574	44.759
0.919552	45.6215
0.926738	45.6335
0.932122	46.49
0.939298	48.1969
0.946474	49.9038
0.95904	51.6198
0.984145	59.2889
0.968007	54.1771
0.993052	72.0156
1.01075	116.961
