Adsorption isotherm of Nitrogen on Tp-Stb as-synth
DOI: 10.1021/ja502212v
Article source: Figure 3(f)
Adsorbate Nitrogen: InChIKey IJGRMHOSHXDMSA-UHFFFAOYSA-N
Kind: experiment
Temperature: 77 K
Tabular data in the source: 0
pressure (bar)	uptake (cm3(STP)/g)
0.010665	12.5842
0.017994	50.3291
0.037074	69.2208
0.062165	83.0884
0.084929	88.1481
0.120141	96.9968
0.151127	102.067
0.17804	108.389
0.202782	110.936
0.225507	114.738
0.260603	119.813
0.287536	126.764
0.306131	129.932
0.337194	137.518
0.366124	142.585
0.392883	143.876
0.415685	150.194
0.438488	156.512
0.471451	159.068
0.496271	164.13
0.527295	170.458
0.554131	174.265
0.578911	178.07
0.614085	185.66
0.634832	191.975
0.665895	199.561
0.694806	204
0.719645	209.691
0.746558	216.013
0.771455	223.592
0.802596	233.693
0.825437	241.269
0.856694	255.144
0.883957	272.788
0.909241	292.945
0.934565	314.36
0.949612	335.762
0.967024	367.231
