Adsorption isotherm of Nitrogen on Tp-Azo as-synth
DOI: 10.1021/ja502212v
Article source: Figure 3(d)
Adsorbate Nitrogen: InChIKey IJGRMHOSHXDMSA-UHFFFAOYSA-N
Kind: experiment
Temperature: 77 K
Tabular data in the source: 0
pressure (bar)	uptake (cm3(STP)/g)
0.012338	9.15879
0.012118	30.3703
0.009858	48.5453
0.011694	71.2781
0.013515	95.5259
0.014928	159.167
0.011004	137.943
0.022981	181.918
0.055458	247.167
0.086146	285.137
0.106599	310.956
0.135356	335.284
0.157803	368.685
0.201065	393.057
0.230057	394.658
0.261059	402.327
0.30454	405.487
0.337661	408.617
0.383198	413.298
0.414169	423.997
0.451481	422.593
0.482467	431.777
0.519764	431.888
0.561173	435.043
0.60051	438.191
0.627367	445.847
0.666689	450.51
0.699841	450.609
0.735003	456.775
0.76398	459.892
0.792941	464.524
0.834334	469.193
0.875665	479.923
0.904563	490.615
0.933461	501.308
0.95404	515.005
