Adsorption isotherm of Nitrogen on PA@Tp-Stb
DOI: 10.1021/ja502212v
Article source: Figure S9
Adsorbate Nitrogen: InChIKey IJGRMHOSHXDMSA-UHFFFAOYSA-N
Kind: experiment
Temperature: 77 K
Tabular data in the source: 0
pressure (bar)	uptake (cm3(STP)/g)
0.008947	5.11525
0.017828	22.0793
0.042954	26.3586
0.057306	29.7724
0.071668	31.4914
0.075251	33.1923
0.082427	34.8992
0.089608	35.7586
0.100387	35.7767
0.112963	35.7977
0.120144	36.6572
0.134516	36.6812
0.143494	37.5437
0.159647	40.1131
0.166823	41.82
0.174004	42.6795
0.188371	43.551
0.195557	43.563
0.20453	45.2729
0.220688	46.9949
0.227869	47.8543
0.238643	48.7198
0.247626	48.7348
0.254812	48.7469
0.270971	50.4688
0.272762	51.3193
0.279943	52.1787
0.294305	53.8977
0.305074	55.6106
0.315853	55.6286
0.323039	55.6406
0.337407	56.5121
0.349967	59.0755
0.355352	59.932
0.362538	59.944
0.375103	61.6599
0.385882	61.678
0.400249	62.5495
0.430775	65.1429
0.411018	64.2624
0.423584	65.9783
0.445132	67.7093
0.461291	69.4312
0.473861	70.2997
0.488228	71.1712
0.502596	72.0427
0.516958	73.7616
0.534913	75.4866
0.542099	75.4986
0.552868	77.2115
0.569026	78.9335
0.579795	80.6464
0.588773	81.5089
0.601343	82.3774
0.612112	84.0903
0.619293	84.9498
0.635437	89.2141
0.642623	89.2261
0.653397	90.0916
0.674935	93.5174
0.664161	92.6519
0.683897	96.9222
0.69287	98.6322
0.696458	99.4856
0.709023	101.202
0.716199	102.908
0.728765	104.624
0.734149	105.481
0.759275	109.76
0.759275	109.76
0.746705	108.892
0.768232	114.012
0.780798	115.728
0.787974	117.435
0.796946	119.145
0.82025	127.659
0.809497	123.404
0.838195	131.079
0.850736	137.032
0.863291	140.443
0.879424	146.402
0.893751	154.053
0.906296	159.159
0.917024	167.651
0.929549	176.147
0.94384	189.73
0.954558	199.917
0.9706	221.131
0.98481	248.273
0.991834	275.403
1.00934	351.704
0.05211	20.676
0.105957	29.1089
0.158067	40.3377
0.206703	45.9694
0.305712	63.5278
0.401247	79.685
0.50373	97.2461
0.611424	116.21
0.700011	136.557
0.807705	170.906
0.90324	219.93
