Adsorption isotherm of Nitrogen on Tp-Sa/PDA
DOI: 10.1039/d1ta06732j
Article source: Figure S36
Adsorbate Nitrogen: InChIKey IJGRMHOSHXDMSA-UHFFFAOYSA-N
Kind: experiment
Temperature: 77 K
Tabular data in the source: 0
pressure (bar)	uptake (cm3(STP)/g)
-0.001989	20.7521
-0.000123	29.654
0.003144	42.4262
0.004544	51.5219
0.00921	62.9387
0.048874	72.9864
0.087138	77.2285
0.130534	80.8879
0.172065	82.4192
0.211728	83.3706
0.252326	85.2893
0.291523	86.628
0.33352	87.7719
0.37365	89.1102
0.412381	89.6749
0.453444	91.2064
0.494041	92.9315
0.534638	93.689
0.575235	95.6077
0.616766	97.139
0.657363	97.8965
0.697027	100.396
0.737157	101.734
0.780554	104.426
0.818818	107.507
0.858948	111.942
0.897212	118.313
0.934543	131.265
0.956008	145.771
0.966274	160.089
0.977006	175.955
0.989139	210.593
0.998005	246.781
1.00454	292.647
1.00314	292.454
0.995205	271.361
0.987272	249.301
0.977006	226.081
0.96954	213.117
0.964874	205.377
0.92521	170.17
0.867814	147.162
0.82815	138.856
0.784754	132.294
0.760022	129.401
0.718492	125.741
0.679295	122.467
0.638697	119.967
0.597634	117.275
0.556103	115.744
0.515506	113.438
0.47211	103.972
0.429179	102.054
0.375983	101.302
0.354051	100.343
0.313454	99.8763
0.273324	98.2477
0.232727	96.9096
0.191663	95.7652
0.151066	94.2336
0.112802	92.701
0.070805	89.041
0.028808	82.6715
0.008277	76.6803
