Adsorption isotherm of Nitrogen on Tp-Sa
DOI: 10.1039/d1ta06732j
Article source: Figure S9
Adsorbate Nitrogen: InChIKey IJGRMHOSHXDMSA-UHFFFAOYSA-N
Kind: experiment
Temperature: 77 K
Tabular data in the source: 0
pressure (bar)	uptake (cm3(STP)/g)
0.00061	20.1339
0.001741	40.6154
0.000526	58.4552
0.00107	78.6066
0.002796	95.1236
0.004524	111.31
0.006256	125.184
0.010934	135.423
0.050196	184.297
0.10066	215.656
0.132372	223.899
0.172321	227.183
0.212854	232.119
0.252804	235.403
0.293929	238.026
0.334468	240.319
0.373831	243.273
0.414371	244.905
0.45256	247.199
0.496039	248.499
0.534812	252.114
0.575059	253.581
0.616479	256.038
0.657606	258
0.696382	260.294
0.73516	261.927
0.779225	263.888
0.818586	267.502
0.857943	272.769
0.896712	278.366
0.93782	289.248
0.959532	302.452
0.968328	310.376
0.980052	323.254
0.987068	339.438
0.995821	366.853
1.00338	404.51
1.00181	405.006
0.990126	373.904
0.980394	346.103
0.966239	325.188
0.951577	312.531
0.923694	299.881
0.883073	290.266
0.823842	282.311
0.780758	279.579
0.7411	277.12
0.716619	276.307
0.677938	275.224
0.636323	272.491
0.596174	271.134
0.556514	269.777
0.515876	268.145
0.478188	260.731
0.433636	257.449
0.375373	254.449
0.335226	252.266
0.312213	251.451
0.272068	248.443
0.232901	245.433
0.191773	244.077
0.150653	238.866
0.111004	232.554
0.072835	221.285
0.028359	183.316
0.009826	149.464
