Adsorption isotherm of Nitrogen on CPP
DOI: 10.1039/d1ta06732j
Article source: Figure S48
Adsorbate Nitrogen: InChIKey IJGRMHOSHXDMSA-UHFFFAOYSA-N
Kind: experiment
Temperature: 77 K
Tabular data in the source: 0
pressure (bar)	uptake (cm3(STP)/g)
0.007815	4.9607
0.055554	6.8399
0.08781	7.55309
0.130389	7.8361
0.172322	8.00591
0.207804	8.10779
0.249737	8.221
0.311669	8.31156
0.351021	8.36817
0.392954	8.41345
0.432952	8.47005
0.47424	8.53797
0.512947	8.57193
0.554235	8.59457
0.596168	8.6059
0.634231	8.65118
0.678099	8.6625
0.716807	8.69646
0.756159	8.73042
0.798737	8.7757
0.83809	8.87759
0.879378	9.02475
0.919376	9.31909
0.9426	9.80587
0.961309	10.3945
0.971631	11.3115
0.981308	12.6926
0.990339	13.7284
1.00131	14.7076
1.00453	17.4359
1.00776	17.4132
0.983888	14.436
0.959373	12.6134
0.902602	11.4587
0.861314	11.0172
0.821962	10.7228
0.780029	10.6662
0.738741	10.6436
0.698743	10.6096
0.658745	10.553
0.618103	10.5077
0.57746	10.4511
0.536172	10.3719
0.494884	10.3832
0.454241	10.3379
0.413598	10.3379
0.3736	10.2813
0.334893	10.1908
0.292315	10.2021
0.252317	10.0889
0.21361	10.0323
0.171677	9.95303
0.131679	9.80587
0.091681	9.6587
0.069747	9.31909
0.028136	8.2776
0.007815	7.07763
