Adsorption isotherm of Nitrogen on Tb-Sa
DOI: 10.1039/d1ta06732j
Article source: Figure S10
Adsorbate Nitrogen: InChIKey IJGRMHOSHXDMSA-UHFFFAOYSA-N
Kind: experiment
Temperature: 77 K
Tabular data in the source: 0
pressure (bar)	uptake (cm3(STP)/g)
-0.000115	22.4383
-0.000994	44.786
-0.000245	66.9577
0.000506	88.2495
0.004492	116.052
0.008894	140.335
0.055169	168.754
0.090939	173.417
0.132002	176.408
0.17266	178.52
0.214131	180.808
0.252758	182.039
0.291792	183.271
0.333675	183.975
0.373522	185.207
0.414998	185.735
0.453627	186.438
0.49551	186.79
0.535359	187.494
0.575208	188.198
0.617092	188.374
0.67768	188.902
0.698823	189.606
0.739486	190.31
0.780552	192.069
0.820397	193.829
0.861461	196.468
0.899871	202.539
0.939485	214.065
0.958967	226.735
0.971137	236.589
0.980457	248.026
0.989358	263.335
0.998642	287.091
1.0063	311.198
1.00467	312.606
0.98526	274.421
0.964588	251.194
0.947958	236.765
0.922376	224.271
0.882153	212.305
0.841907	208.434
0.782145	203.507
0.740669	202.803
0.699601	201.747
0.658537	199.636
0.617464	200.164
0.577207	199.988
0.55688	198.228
0.499551	195.589
0.479219	195.413
0.433677	194.709
0.375938	193.477
0.334463	192.421
0.313317	192.597
0.271843	191.365
0.231386	190.134
0.190929	188.726
0.15149	186.966
0.110831	185.031
0.071803	181.863
0.029939	174.649
0.00886	151.949
