Adsorption isotherm of Carbon Dioxide on CMPN-2
DOI: 10.1039/c4ta04235b
Article source: Figure 2b
Adsorbate Carbon Dioxide: InChIKey CURLTUGMZLYLDI-UHFFFAOYSA-N
Kind: experiment
Temperature: 273 K
Tabular data in the source: 0
pressure (bar)	uptake (cm3(STP)/g)
0.17491	0.050388
0.336366	19.3237
0.34982	16.6184
0.511277	25.5072
0.524732	23.1884
0.699641	28.2126
0.861098	35.1691
0.874552	32.8502
1.03601	39.4203
1.04946	37.1014
1.21092	43.285
1.22437	40.9662
1.37238	46.7633
1.38583	44.4444
1.56074	50.2415
1.57419	47.9227
1.73565	52.9469
1.89711	56.0386
1.91056	53.7198
2.08547	58.3575
2.09893	56.4251
2.26038	58.744
2.42184	62.9952
2.43529	61.4493
2.59675	64.9275
2.6102	63.3816
2.77166	66.8599
2.93311	67.6329
3.10803	70.7246
3.12148	69.5652
3.28293	72.2705
3.29639	71.4976
3.44439	73.43
3.45784	73.0435
