Adsorption isotherm of Carbon Dioxide on CMPN-3
DOI: 10.1039/c4ta04235b
Article source: Figure 2b
Adsorbate Carbon Dioxide: InChIKey CURLTUGMZLYLDI-UHFFFAOYSA-N
Kind: experiment
Temperature: 273 K
Tabular data in the source: 0
pressure (bar)	uptake (cm3(STP)/g)
0.188365	0.054264
0.336366	10.4348
0.34982	7.72947
0.511277	13.913
0.524732	11.5942
0.686186	14.2995
0.861098	18.9372
0.874552	16.6184
1.03601	21.256
1.04946	18.9372
1.19746	23.5749
1.21092	21.256
1.37238	25.1208
1.38583	22.8019
1.54728	27.0531
1.56074	24.7343
1.73565	28.2126
1.89711	30.1449
1.91056	27.8261
2.07202	31.6908
2.08547	29.7585
2.24693	30.9179
2.40838	33.2367
2.42184	31.6908
2.59675	34.7826
2.6102	33.2367
2.7582	35.942
2.94657	35.5556
3.10803	37.8744
3.12148	36.715
3.26948	37.8744
3.28293	37.1014
3.44439	38.6473
3.45784	38.2609
