Adsorption isotherm of Carbon Dioxide on CMPN-1
DOI: 10.1039/c4ta04235b
Article source: Figure 2c
Adsorbate Carbon Dioxide: InChIKey CURLTUGMZLYLDI-UHFFFAOYSA-N
Kind: experiment
Temperature: 298 K
Tabular data in the source: 0
pressure (bar)	uptake (mg/g)
0.303731	5.17949
0.329042	1.42037
0.632773	6.88888
0.658087	3.12975
0.961815	5.13006
1.29086	7.12846
1.6199	8.83785
1.92363	14.0173
2.25267	15.1487
2.27798	11.6786
2.58172	16.5691
2.91075	18.2784
3.21449	19.1227
3.54353	20.543
3.56884	17.0729
3.84726	21.6763
3.87257	18.4952
4.15099	22.8096
4.20161	19.9156
4.53065	23.6481
4.55596	21.045
4.80907	24.2052
4.8597	22.1783
5.13812	23.3134
5.46716	24.1558
5.7962	26.1542
5.82151	25.2852
6.15056	26.4166
6.42896	27.2627
