Adsorption isotherm of Carbon Dioxide on CMPN-3
DOI: 10.1039/c4ta04235b
Article source: Figure 2c
Adsorbate Carbon Dioxide: InChIKey CURLTUGMZLYLDI-UHFFFAOYSA-N
Kind: experiment
Temperature: 298 K
Tabular data in the source: 0
pressure (bar)	uptake (mg/g)
0.326891	0.05098
0.653784	3.59477
0.678926	5.03719
0.980673	5.67951
1.28242	9.48276
1.30757	7.76426
1.58417	10.9872
1.60931	9.26865
1.9362	11.066
2.26309	12.8634
2.53969	15.799
2.58999	14.3735
2.86659	17.309
2.89173	15.8778
3.21862	18.8247
3.24377	17.3935
3.52037	20.3291
3.84726	21.5517
4.14901	21.332
4.4759	24.2788
4.77764	25.4958
4.80279	23.7773
5.10453	26.4311
5.12968	25
5.40628	27.3608
5.45657	26.2227
5.75832	27.1524
6.06006	29.5188
6.11035	28.668
6.36181	29.8738
