Adsorption isotherm of Carbon Dioxide on CMPN-2
DOI: 10.1039/c4ta04235b
Article source: Figure 2c
Adsorbate Carbon Dioxide: InChIKey CURLTUGMZLYLDI-UHFFFAOYSA-N
Kind: experiment
Temperature: 298 K
Tabular data in the source: 0
pressure (bar)	uptake (mg/g)
0.328178	4.00187
0.656355	7.71471
0.959289	11.142
1.00978	10.2681
1.26222	14.8582
1.31271	13.6953
1.61565	17.1226
1.66614	15.9597
1.91858	20.2608
1.94383	18.8123
2.24676	22.5286
2.27201	21.0801
2.57494	25.3744
2.60018	23.6368
2.87787	27.3565
3.20605	28.4682
3.23129	29.6209
3.53423	31.603
3.86241	33.5818
3.88765	32.4223
4.19058	35.5605
4.49352	37.2537
4.51876	36.0942
4.8217	37.7873
4.84694	39.229
5.14988	40.6331
5.17512	39.7626
5.45281	41.4592
5.78099	43.727
5.83148	42.8531
6.10917	44.8387
6.13441	44.8352
6.4121	46.2428
