Adsorption isotherm of Carbon Dioxide on CMPN-1
DOI: 10.1039/c4ta04235b
Article source: Figure 2b
Adsorbate Carbon Dioxide: InChIKey CURLTUGMZLYLDI-UHFFFAOYSA-N
Kind: experiment
Temperature: 273 K
Tabular data in the source: 0
pressure (bar)	uptake (cm3(STP)/g)
0.188365	6.57005
0.34982	10.4348
0.363275	10.8213
0.497823	13.913
0.524732	14.686
0.672731	17.7778
0.686186	18.5507
0.861098	20.8696
1.02255	21.6425
1.06292	23.9614
1.22437	24.3478
1.23783	25.8937
1.35892	25.5072
1.38583	28.2126
1.48001	27.0531
1.56074	30.1449
1.7222	28.599
1.73565	31.6908
1.88365	30.9179
1.91056	34.0097
2.04511	32.0773
2.11238	35.1691
2.23347	34.0097
2.26038	36.715
2.40838	35.1691
2.58329	36.3285
2.59675	38.6473
2.78511	39.4203
2.94657	39.4203
2.96002	40.5797
3.10803	41.3527
3.13493	40.1932
3.28293	41.3527
3.29639	42.1256
3.45784	42.5121
