Adsorption isotherm of Hydrogen on IRMOF-8
DOI: 10.1021/La101377u
Adsorbate Hydrogen: InChIKey UFHFLCQGNIYNRP-UHFFFAOYSA-N
Temperature: 298 K
Tabular data in the source: 0
pressure (bar)	uptake (wt%)
5.37651	0.049557
14.1361	0.185102
27.2761	0.370083
41.6109	0.567434
53.7549	0.752293
65.1045	0.87593
77.4473	1.07304
87.2024	1.22093
95.9629	1.33202
102.134	1.43058
