Adsorption isotherm of Hydrogen on IRMOF-8
DOI: 10.1021/La101377u
Adsorbate Hydrogen: InChIKey UFHFLCQGNIYNRP-UHFFFAOYSA-N
Temperature: 298 K
Tabular data in the source: 0
pressure (bar)	uptake (wt%)
5.37213	0.159581
22.0822	0.736196
40.5822	1.38638
61.0767	1.97568
80.974	2.55269
101.064	3.30086
