Adsorption isotherm of Hydrogen on IRMOF-8
DOI: 10.1021/La101377u
Adsorbate Hydrogen: InChIKey UFHFLCQGNIYNRP-UHFFFAOYSA-N
Temperature: 298 K
Tabular data in the source: 0
pressure (bar)	uptake (wt%)
5.57133	0.159605
20.6946	0.564877
40.9967	0.983007
55.9252	1.27823
71.4498	1.6102
82.7956	1.83164
90.3599	1.96704
95.731	2.15107
99.3142	2.21263
