Adsorption isotherm of Hydrogen on Pt/AX-21
DOI: 10.1021/La101377u
Adsorbate Hydrogen: InChIKey UFHFLCQGNIYNRP-UHFFFAOYSA-N
Temperature: 298 K
Tabular data in the source: 0
pressure (bar)	uptake (wt%)
4.38849	0.0485512
27.3203	0.29128
47.1357	0.485422
65.2473	0.624302
77.1341	0.723531
