Adsorption isotherm of Hydrogen on Pt/AX-21
DOI: 10.1021/La101377u
Adsorbate Hydrogen: InChIKey UFHFLCQGNIYNRP-UHFFFAOYSA-N
Temperature: 298 K
Tabular data in the source: 0
pressure (bar)	uptake (wt%)
0.000625408	0.00442476
28.1818	0.386389
51.1171	0.653454
65.9827	0.827821
