Adsorption isotherm of Hydrogen on IRMOF-8
DOI: 10.1021/La101377u
Adsorbate Hydrogen: InChIKey UFHFLCQGNIYNRP-UHFFFAOYSA-N
Temperature: 298 K
Tabular data in the source: 0
pressure (bar)	uptake (wt%)
5.37846	0.000657513
22.5064	0.088326
59.1514	0.30063
79.864	0.413186
100.178	0.525694
