Adsorption isotherm of Hydrogen on Pt/AX-21
DOI: 10.1021/La101377u
Adsorbate Hydrogen: InChIKey UFHFLCQGNIYNRP-UHFFFAOYSA-N
Temperature: 298 K
Tabular data in the source: 0
pressure (bar)	uptake (wt%)
4.95198	0.0352613
19.953	0.16759
37.784	0.321964
52.2122	0.401211
78.3808	0.544293
