Adsorption isotherm of Hydrogen on MIL-101
DOI: 10.1021/La101377u
Adsorbate Hydrogen: InChIKey UFHFLCQGNIYNRP-UHFFFAOYSA-N
Temperature: 298 K
Tabular data in the source: 0
pressure (bar)	uptake (wt%)
5.37164	0.171806
22.4806	0.736245
40.7814	1.3864
60.6753	2.04898
80.5629	2.87048
100.442	3.91203
