Adsorption isotherm of Hydrogen on Pt/AC
DOI: 10.1021/La101377u
Adsorbate Hydrogen: InChIKey UFHFLCQGNIYNRP-UHFFFAOYSA-N
Temperature: 298 K
Tabular data in the source: 0
pressure (bar)	uptake (cm3(STP)/g)
0.00774286	0.44107
0.0580714	3.42567
0.106464	3.52794
0.205186	3.73247
0.303907	3.9664
0.410372	4.21493
0.509093	4.43416
0.611686	4.66804
0.714279	4.91662
0.814936	5.12112
0.913657	5.34034
1.01238	5.55957
