Adsorption isotherm of Hydrogen on Pt/AC
DOI: 10.1021/La101377u
Adsorbate Hydrogen: InChIKey UFHFLCQGNIYNRP-UHFFFAOYSA-N
Temperature: 298 K
Tabular data in the source: 0
pressure (bar)	uptake (cm3(STP)/g)
0.0522643	3.17575
0.118079	3.3072
0.2168	3.45289
0.307779	3.62811
0.408436	3.77378
0.5149	3.90467
0.611686	4.05039
0.712343	4.19606
0.814936	4.327
0.915593	4.47267
1.01044	4.5743
