Adsorption isotherm of Nitrogen on IRMOF-8
DOI: 10.1021/La101377u
Adsorbate Nitrogen: InChIKey IJGRMHOSHXDMSA-UHFFFAOYSA-N
Temperature: 77 K
Tabular data in the source: 0
pressure (bar)	uptake (cm3(STP)/g)
2.78e-17	2.78e-17
0.00398721	128.467
0.0139552	145.985
0.0259169	153.771
0.0518337	155.718
0.0717698	158.637
0.101674	162.53
0.127591	166.423
0.151514	169.343
0.199361	175.182
0.253188	179.075
0.301034	184.915
0.350875	188.808
0.400715	194.647
0.450555	198.54
0.498401	203.406
0.552229	208.273
0.598082	212.165
0.647922	217.032
0.697762	222.871
0.749596	227.737
0.799436	235.523
0.845289	245.255
0.899116	258.881
0.946963	276.399
0.972879	295.864
0.986835	320.195
0.990822	351.338
