Adsorption isotherm of Nitrogen on IRMOF-8
DOI: 10.1021/La101377u
Adsorbate Nitrogen: InChIKey IJGRMHOSHXDMSA-UHFFFAOYSA-N
Temperature: 77 K
Tabular data in the source: 0
pressure (bar)	uptake (cm3(STP)/g)
0.00199361	18.4915
0.00398721	38.9294
0.0239233	70.073
0.0378785	74.9392
0.0578146	74.9392
0.075757	78.8321
0.103667	81.7518
0.129584	81.7518
0.155501	85.6448
0.203348	88.5645
0.255182	92.4574
0.309009	97.3236
0.354862	100.243
0.404702	104.136
0.454542	107.056
0.504382	110.949
0.552229	113.869
0.604062	115.815
0.655896	121.655
0.703743	125.547
0.753583	128.467
0.805417	132.36
0.853263	139.173
0.903103	145.985
0.948956	157.664
0.984841	173.236
0.998796	185.888
1.00079	193.674
