Adsorption isotherm of Nitrogen on TT-COF : PCBM
DOI: 10.1002/anie.201208514
Article source: Figure 2b
Adsorbate Nitrogen: InChIKey IJGRMHOSHXDMSA-UHFFFAOYSA-N
Kind: experiment
Temperature: 77 K
Tabular data in the source: 0
pressure (bar)	uptake (cm3(STP)/g)
0.003632	96.01
0.014527	101.995
0.029054	121.945
0.05266	129.925
0.07445	139.9
0.094425	147.88
0.114399	155.86
0.132558	169.825
0.154348	175.81
0.170691	197.756
0.192481	231.671
0.212456	253.616
0.239694	259.601
0.266931	257.606
0.290538	257.606
0.310512	259.601
0.332302	263.591
0.361356	263.591
0.394042	269.576
0.42128	273.566
0.441254	271.571
0.466676	271.571
0.486651	271.571
0.512073	273.566
0.537495	273.566
0.562917	273.566
0.582891	277.556
0.611945	277.556
0.631919	277.556
0.670052	281.546
0.688211	279.551
0.717265	281.546
0.746319	285.536
0.764477	285.536
0.793531	289.526
0.818953	289.526
0.838927	289.526
0.878876	293.516
0.898851	295.511
0.911562	301.496
0.9388	303.491
0.973301	313.466
0.99146	339.401
0.964222	319.451
0.933352	313.466
0.902483	309.476
0.882508	307.481
0.864349	303.491
0.83348	301.496
0.818953	297.506
0.786267	297.506
0.755398	297.506
0.731792	293.516
0.711817	291.521
0.684579	291.521
0.655526	289.526
0.637367	289.526
0.604681	287.531
0.579259	285.536
0.555653	285.536
0.512073	279.551
0.483019	277.556
0.455781	277.556
0.424911	277.556
0.404937	265.586
0.375883	267.581
0.354093	267.581
0.325039	267.581
0.290538	267.581
0.277827	265.586
0.266931	265.586
0.250589	261.596
0.221535	259.601
0.196113	257.606
0.150716	183.791
0.101688	157.855
0.045397	131.92
0.005448	111.97
