Adsorption isotherm of Nitrogen on TT-COF
DOI: 10.1002/anie.201208514
Article source: Figure 2b
Adsorbate Nitrogen: InChIKey IJGRMHOSHXDMSA-UHFFFAOYSA-N
Kind: experiment
Temperature: 77 K
Tabular data in the source: 0
pressure (bar)	uptake (cm3(STP)/g)
0.005448	253.616
0.012711	279.551
0.03087	317.456
0.047212	343.392
0.072634	359.352
0.090793	379.302
0.110767	399.252
0.128926	419.202
0.154348	447.132
0.174323	483.042
0.196113	620.698
0.221535	648.628
0.234246	648.628
0.25422	654.613
0.281458	662.594
0.30688	662.594
0.332302	670.574
0.35954	670.574
0.386778	672.569
0.4122	674.564
0.437622	680.549
0.463044	680.549
0.493914	692.519
0.510257	690.524
0.535679	694.514
0.562917	696.509
0.588339	698.504
0.613761	698.504
0.640999	700.499
0.660973	704.489
0.684579	704.489
0.713633	710.474
0.737239	712.469
0.768109	714.464
0.789899	716.459
0.813505	718.454
0.835296	726.434
0.871613	728.429
0.893403	732.419
0.909746	742.394
0.936984	748.379
0.967853	764.339
0.998723	822.195
0.966038	780.299
0.926089	766.334
0.911562	762.344
0.884324	752.369
0.860718	744.389
0.829848	744.389
0.806242	736.409
0.768109	728.429
0.733608	730.424
0.711817	722.444
0.680948	720.449
0.655526	720.449
0.630103	722.444
0.604681	722.444
0.586523	714.464
0.552022	714.464
0.533863	712.469
0.504809	708.479
0.483019	700.499
0.452149	694.514
0.424911	696.509
0.397673	686.534
0.370435	682.544
0.35954	684.539
0.328671	680.549
0.301433	678.554
0.245141	666.584
0.194297	652.618
0.152532	455.112
0.099872	401.247
0.045397	351.372
0.005448	285.536
0.001816	263.591
