Adsorption isotherm of Argon on {[Cd(bpndc)(bpy)]}n
DOI: 10.1002/anie.200705822
Adsorbate Argon: InChIKey XKRFYHLGVUSROY-UHFFFAOYSA-N
Temperature: 90 K
Tabular data in the source: 0
pressure (bar)	uptake (ml/g)
0.0393701	0.974026
0.0748031	0.974026
0.145669	0.974026
0.185039	0.974026
0.220472	0.974026
0.255906	0.974026
0.291339	0.974026
0.326772	1.94805
0.366142	1.94805
0.385827	58.4416
0.401575	2.92208
0.409449	67.2078
0.437008	79.8701
0.464567	86.6883
0.496063	91.5584
0.527559	97.4026
0.562992	100.325
0.594488	102.273
0.625984	106.169
0.661417	110.065
0.69685	111.039
0.728346	112.987
0.76378	114.935
0.799213	117.857
0.826772	119.805
0.862205	122.727
0.901575	125.649
0.929134	127.597
0.964567	129.545
