Adsorption isotherm of Nitrogen on {[Cd(bpndc)(bpy)]}n
DOI: 10.1002/anie.200705822
Adsorbate Nitrogen: InChIKey IJGRMHOSHXDMSA-UHFFFAOYSA-N
Temperature: 90 K
Tabular data in the source: 0
pressure (bar)	uptake (ml/g)
0.122047	0.974026
0.42126	0.974026
0.444882	0.974026
0.468504	127.597
0.492126	130.519
0.5	1.94805
0.515748	132.468
0.527559	1.94805
0.543307	133.442
0.551181	2.92208
0.566929	134.416
0.598425	136.364
0.622047	138.312
0.669291	141.234
0.692913	142.208
0.724409	145.13
0.751969	145.13
0.775591	145.13
0.80315	146.104
0.826772	147.078
0.858268	148.052
0.88189	148.052
0.909449	149.026
0.933071	150
0.956693	150
0.988189	150
