Adsorption isotherm of Oxygen on {[Cd(bpndc)(bpy)]}n
DOI: 10.1002/anie.200705822
Adsorbate Oxygen: InChIKey MYMOFIZGZYHOMD-UHFFFAOYSA-N
Temperature: 90 K
Tabular data in the source: 0
pressure (bar)	uptake (ml/g)
0.00393701	0.974026
0.0275591	90.5844
0.0314961	109.091
0.0354331	113.961
0.0393701	-2.84e-14
0.0472441	122.727
0.0551181	131.494
0.0669291	137.338
0.0787402	139.286
0.0984252	139.286
0.125984	142.208
0.204724	145.13
0.232283	145.13
0.338583	149.026
0.366142	150
0.42126	150.974
0.448819	151.948
0.476378	151.948
0.527559	152.922
0.559055	153.896
0.582677	153.896
0.610236	153.896
0.641732	153.896
0.665354	154.87
0.700787	155.844
0.720472	154.87
0.751969	155.844
0.779528	156.818
0.807087	155.844
0.834646	156.818
0.862205	156.818
0.889764	156.818
0.917323	157.792
0.940945	157.792
0.972441	158.766
