Adsorption isotherm of Nitrogen on MIL-101
DOI: 10.1016/j.jhazmat.2012.01.005
Adsorbate Nitrogen: InChIKey IJGRMHOSHXDMSA-UHFFFAOYSA-N
Temperature: 77 K
Tabular data in the source: 0
pressure (bar)	uptake (cm3(STP)/g)
0.00998992	352.165
0.0324672	431.137
0.0499496	477.165
0.067432	515.349
0.0874118	547.783
0.104894	572.895
0.127372	641.41
0.142356	664.429
0.169829	684.843
0.192306	695.842
0.209788	713.111
0.219778	750.243
0.257241	781.646
0.272225	781.135
0.299698	778.02
0.30719	779.072
0.324672	778.04
0.342155	774.394
0.379617	771.81
0.419577	763.476
0.459536	760.371
0.499496	757.266
0.536958	749.453
0.576918	746.348
0.616878	740.629
0.65434	730.201
0.6943	724.482
0.731762	719.284
0.771722	713.564
0.809184	708.366
0.849143	705.261
0.886606	700.062
0.944048	703.769
0.969023	732.547
