Adsorption isotherm of Nitrogen on MIL-100(Fe)
DOI: 10.1016/j.jhazmat.2012.01.005
Adsorbate Nitrogen: InChIKey IJGRMHOSHXDMSA-UHFFFAOYSA-N
Temperature: 77 K
Tabular data in the source: 0
pressure (bar)	uptake (cm3(STP)/g)
0.0124874	288.899
0.0324672	323.948
0.0499496	356.903
0.0699295	384.109
0.0924068	405.565
0.109889	417.605
0.124874	432.781
0.139859	455.799
0.174824	451.122
0.194803	454.798
0.212286	451.152
0.247251	446.474
0.28721	438.14
0.324672	435.556
0.362135	427.743
0.402094	422.024
0.459536	412.659
0.519476	400.158
0.576918	390.793
0.65434	374.646
0.696797	360.563
0.716777	359.01
0.771722	347.551
0.831661	337.665
0.886606	328.82
0.934058	316.31
0.949043	318.413
0.966525	319.996
