Adsorption isotherm of Nitrogen on Activated Carbon
DOI: 10.1016/j.jhazmat.2012.01.005
Adsorbate Nitrogen: InChIKey IJGRMHOSHXDMSA-UHFFFAOYSA-N
Temperature: 77 K
Tabular data in the source: 0
pressure (bar)	uptake (cm3(STP)/g)
0.0124874	207.853
0.0299698	227.737
0.0499496	234.027
0.0899093	238.765
0.112387	239.306
0.152346	236.201
0.189809	233.617
0.229768	230.512
0.264733	228.449
0.304693	220.115
0.342155	217.531
0.384612	211.291
0.419577	203.999
0.457039	198.8
0.499496	192.56
0.541953	186.32
0.579416	178.507
0.61438	176.444
0.659335	167.068
0.714279	158.224
0.771722	148.858
0.811681	145.753
0.846646	141.076
0.889103	134.835
0.929063	129.116
0.946545	128.084
0.966525	129.146
