Adsorption isotherm of Hydrogen on PCN-105
DOI: 10.1039/C1cc15687j
Adsorbate Hydrogen: InChIKey UFHFLCQGNIYNRP-UHFFFAOYSA-N
Temperature: 77 K
Tabular data in the source: 0
pressure (bar)	uptake (cm3(STP)/g)
0.00286715	7.89969
0.00860144	14.1066
0.0114686	18.6207
0.02007	28.2132
0.0286715	36.1129
0.0430072	42.884
0.0544758	47.9624
0.0630772	52.4765
0.0716787	56.4263
0.0831473	59.8119
0.0946159	63.1975
0.106084	66.5831
0.117553	69.4044
0.14049	74.4828
0.157693	77.8683
0.18063	83.511
0.2007	86.3323
0.22077	89.7179
0.24084	93.1034
0.26091	95.9248
0.283848	98.7461
0.303918	102.132
0.321121	104.953
0.344058	107.774
0.375596	111.724
0.401401	114.545
0.418604	116.238
0.438674	119.06
0.458744	121.317
0.481681	123.574
0.501751	125.831
0.524688	128.088
0.544758	129.216
0.570562	131.473
0.596367	133.73
0.619304	136.552
0.639374	137.68
0.670913	140.502
0.699584	142.759
0.736857	145.58
0.756927	146.708
0.776997	148.401
0.799934	150.094
0.81427	151.223
0.842941	152.915
0.87448	155.172
0.897417	157.429
0.920354	157.994
0.949026	160.251
0.983432	161.944
1.0121	163.636
1.03217	165.329
1.05798	167.022
