Adsorption isotherm of Oxygen on PCN-105
DOI: 10.1039/C1cc15687j
Adsorbate Oxygen: InChIKey MYMOFIZGZYHOMD-UHFFFAOYSA-N
Temperature: 77 K
Tabular data in the source: 0
pressure (bar)	uptake (cm3(STP)/g)
0.000530569	0.000530569
0.00106114	276.412
0.00159171	293.688
0.00477512	312.292
0.00636682	322.924
0.0100808	329.568
0.0148559	334.884
0.019631	340.199
0.0244062	342.857
0.0291813	345.515
0.034487	348.173
0.0392621	352.159
0.0445678	354.817
0.0493429	354.817
0.0546486	357.475
0.0594237	358.804
0.0647294	361.462
0.0695045	362.791
0.0742796	362.791
0.0790547	365.449
0.0838298	366.777
0.088605	366.777
0.0933801	369.435
0.0986858	369.435
0.103461	370.764
0.108236	372.093
0.113542	373.422
0.118847	373.422
0.124153	374.751
0.128928	374.751
0.132642	376.08
0.136887	377.409
0.142192	377.409
0.146968	378.738
0.157579	381.395
0.162885	381.395
0.16819	381.395
0.172965	381.395
0.178271	384.053
0.183046	384.053
0.188352	384.053
0.193127	386.711
0.19631	386.711
