Adsorption isotherm of Argon on PCN-105
DOI: 10.1039/C1cc15687j
Adsorbate Argon: InChIKey XKRFYHLGVUSROY-UHFFFAOYSA-N
Temperature: 87 K
Tabular data in the source: 0
pressure (bar)	uptake (cm3(STP)/g)
0.00250334	0.00250334
0.00500668	227.243
0.0100134	243.189
0.0200267	259.136
0.0275368	264.452
0.0375501	269.767
0.0575769	281.728
0.0776036	289.701
0.0976303	293.688
0.11265	297.674
0.132677	302.99
0.152704	305.648
0.170227	308.306
0.192757	309.635
0.212784	310.963
0.232811	312.292
0.255341	316.279
0.277871	317.608
0.300401	318.937
0.317924	318.937
0.337951	321.595
0.357978	321.595
0.378005	322.924
0.400535	322.924
0.423065	324.252
0.443092	325.581
0.463118	328.239
0.485648	326.91
0.505675	328.239
0.528205	329.568
0.550735	330.897
0.575769	330.897
0.595795	332.226
0.615822	332.226
0.640856	334.884
0.670896	336.213
0.708446	336.213
0.743493	338.87
0.788553	341.528
0.828606	342.857
0.87617	344.186
0.908713	345.515
0.933747	345.515
