Adsorption isotherm of Hydrogen on PCN-105
DOI: 10.1039/C1cc15687j
Adsorbate Hydrogen: InChIKey UFHFLCQGNIYNRP-UHFFFAOYSA-N
Temperature: 87 K
Tabular data in the source: 0
pressure (bar)	uptake (cm3(STP)/g)
0.0057343	3.94984
0.0143357	6.77116
0.0315386	15.7994
0.0544758	22.5705
0.0745458	28.7774
0.0946159	34.4201
0.114686	38.3699
0.14049	43.4483
0.16056	46.8339
0.183497	50.7837
0.212169	54.7335
0.235106	58.1191
0.263778	62.069
0.289582	64.326
0.306785	66.5831
0.341191	69.9687
0.364128	72.2257
0.384198	73.9185
0.404268	75.6113
0.430072	77.8683
0.447275	80.1254
0.473079	81.8182
0.504618	84.6395
0.536157	86.8966
0.564828	89.1536
0.596367	91.4107
0.627905	93.1034
0.659444	94.7962
0.690983	97.6176
0.728256	100.439
0.771263	102.696
0.83434	105.517
0.883081	108.903
0.937557	111.16
0.977697	113.981
1.02931	116.803
1.06945	117.931
