Adsorption isotherm of Nitrogen on PCN-105
DOI: 10.1039/C1cc15687j
Adsorbate Nitrogen: InChIKey IJGRMHOSHXDMSA-UHFFFAOYSA-N
Temperature: 77 K
Tabular data in the source: 0
pressure (bar)	uptake (cm3(STP)/g)
0.00247837	0.00247837
0.0074351	229.9
0.0123918	243.189
0.0198269	252.492
0.0322188	256.478
0.0371755	257.807
0.0495673	263.123
0.0570024	263.123
0.0793078	267.11
0.101613	271.096
0.123918	273.754
0.146224	276.412
0.171007	277.741
0.193313	280.399
0.218096	281.728
0.240402	284.385
0.265185	284.385
0.289969	285.714
0.314753	287.043
0.339536	288.372
0.371755	289.701
0.401496	291.03
0.421322	293.688
0.453541	293.688
0.488238	293.688
0.510544	295.017
0.5155	295.017
0.547719	295.017
0.567546	296.346
0.574981	296.346
0.609678	297.674
0.624549	297.674
0.63694	297.674
0.661724	297.674
0.686508	299.003
0.718727	300.332
0.74351	299.003
0.763337	301.661
0.798034	301.661
0.817861	301.661
0.827775	302.99
0.857515	301.661
0.872385	301.661
0.884777	302.99
0.914518	302.99
0.94178	304.319
