Adsorption isotherm of Nitrogen on TPPDA-TPTPE COF
DOI: 10.1039/c9cc08107k
Article source: Figure 2c
Adsorbate Nitrogen: InChIKey IJGRMHOSHXDMSA-UHFFFAOYSA-N
Kind: experiment
Temperature: 77 K
Tabular data in the source: 0
pressure (bar)	uptake (cm3(STP)/g)
0.0101	229.92
0.061765	322.939
0.072252	300.728
0.087872	333.581
0.098136	309.961
0.115986	341.006
0.128035	319.331
0.144101	347.649
0.15615	325.231
0.172215	352.757
0.184264	331.131
0.20033	357.519
0.212379	334.67
0.240493	339.979
0.256559	364.993
0.268608	343.696
0.284673	368.283
0.296722	347.275
0.312788	370.684
0.324837	350.187
0.340902	373.486
0.352952	353.389
0.369017	376.02
0.397131	378.75
0.409181	359.053
0.425246	381.355
0.437295	362.214
0.453361	384.13
0.46541	365.055
0.481475	387.624
0.493524	367.794
0.50959	391.293
0.521639	370.951
0.537704	393.76
0.551092	374.008
0.565819	395.361
0.593933	398.162
0.622048	400.83
0.634097	382.467
0.650162	403.764
0.662211	385.535
0.678277	407.232
0.706391	410.167
0.71844	393.36
0.734506	414.969
0.764478	399.08
0.76262	418.703
0.774669	401.274
0.790735	424.306
0.802784	406.61
0.818849	430.882
0.830899	411.567
0.846964	437.422
0.859013	418.028
0.875581	447.323
0.888466	425.595
0.899177	455.925
0.915242	434.817
0.920463	469.408
0.940488	486.397
0.93934	445.41
0.954402	499.132
0.953398	456.563
0.967957	467.526
0.970802	518.623
0.977496	479.096
0.989143	535.246
0.986389	490.065
0.997578	503.217
1.0036	519.588
1.00561	541.406
1.00561	530.761
0.035448	312.593
0.017525	284.815
0.009559	260.278
0.017525	239.444
0.019516	252.407
0.027482	260.741
0.035448	270
0.041422	284.815
0.049388	291.296
0.057354	296.852
0.005576	219.074
0.005576	212.593
0.005576	201.481
0.005576	187.593
0.005576	175.556
0.005576	164.444
0.005576	151.481
0.005576	140.37
0.005576	132.963
0.005576	120
0.005576	110.278
0.925626	440.37
0.947532	450.556
0.963464	461.667
0.975412	473.704
0.983378	485.278
0.99234	496.852
0.899737	430.185
0.871857	420.926
0.845968	414.444
