Adsorption isotherm of Nitrogen on TPPDA-TPPyr COF
DOI: 10.1039/c9cc08107k
Article source: Figure 2c
Adsorbate Nitrogen: InChIKey IJGRMHOSHXDMSA-UHFFFAOYSA-N
Kind: experiment
Temperature: 77 K
Tabular data in the source: 0
pressure (bar)	uptake (cm3(STP)/g)
0.006206	248.71
0.004524	241.041
0.014238	267.488
0.025618	279.574
0.029634	288.185
0.043692	296.64
0.054937	304.96
0.068364	311.905
0.083855	319.697
0.11197	324.302
0.138578	328.645
0.132052	320.398
0.190289	335.337
0.20033	327.067
0.259906	333.262
0.316804	339.928
0.308772	333.781
0.345846	340.101
0.399687	343.203
0.456647	350.389
0.51316	351.625
0.512803	343.74
0.553909	355.871
0.59795	359.569
0.600181	349.861
0.655183	352.027
0.713085	362.829
0.74477	365.319
0.727276	356.034
0.772159	367.9
0.770653	358.546
0.801636	370.151
0.80178	360.78
0.827886	371.868
0.825376	362.881
0.85455	375.071
0.859682	366.46
0.897169	383.682
0.915242	374.241
0.923849	390.426
0.947875	396.534
0.963438	404.164
0.979504	411.278
0.978835	394.005
0.991553	418.81
0.990979	402.43
1.0036	409.722
1.00528	427.407
0.419798	341.296
0.160909	332.037
0.180824	326.481
0.154935	324.167
0.105149	315.37
0.083243	309.815
0.063328	299.63
0.043414	290.37
0.01155	258.889
0.002589	231.111
0.873848	381.111
0.885797	370.926
0.923635	376.481
0.930605	378.796
0.938571	381.111
0.945541	383.889
0.955498	386.204
0.964459	389.907
0.746396	357.5
0.655785	361.204
0.53331	346.389
0.553225	347.778
0.458631	344.074
