Adsorption isotherm of Nitrogen on RuMOF
DOI: 10.1021/acs.analchem.5b00391
Article source: Figure 5b
Adsorbate Nitrogen: InChIKey IJGRMHOSHXDMSA-UHFFFAOYSA-N
Kind: experiment
Temperature: 77 K
Tabular data in the source: 0
pressure (bar)	uptake (cm3(STP)/g)
0	0
0.008888	109.623
0.02222	115.403
0.035553	118.71
0.053329	122.021
0.071105	123.684
0.09777	126.178
0.106658	127.01
0.11999	127.845
0.137767	129.508
0.151099	129.519
0.173319	131.185
0.213315	132.866
0.29331	135.403
0.391079	138.78
0.493293	140.511
0.551066	141.382
0.582174	142.232
0.604395	142.25
0.639947	143.103
0.662168	143.945
0.693277	143.971
0.715496	144.813
0.742161	145.659
0.759937	145.673
0.777714	147.336
0.79549	148.175
0.808823	149.834
0.826598	151.497
0.844375	153.159
0.857707	156.467
0.875483	158.13
0.888816	159.789
0.897704	160.62
0.91548	162.283
0.933257	163.122
0.946589	163.133
0.964365	163.971
0.986585	165.638
1.00881	167.304
