Adsorption isotherm of Nitrogen on Hg2+-RuMOFs
DOI: 10.1021/acs.analchem.5b00391
Article source: Figure 5b
Adsorbate Nitrogen: InChIKey IJGRMHOSHXDMSA-UHFFFAOYSA-N
Kind: experiment
Temperature: 77 K
Tabular data in the source: 0
pressure (bar)	uptake (cm3(STP)/g)
0	0
0.02222	0.828729
0.079993	1.65746
0.182208	2.48619
0.559954	3.31492
0.813267	4.97238
0.839931	5.8011
0.866595	5.8011
0.906592	6.62983
0.924369	8.28729
0.937701	9.11602
0.959921	10.7735
0.973253	13.2597
0.991029	15.7459
0.999918	18.232
1.00436	21.547
1.00881	24.0331
