Adsorption isotherm of Nitrogen on ZIF-8
DOI: 10.1021/Jz300292y
Adsorbate Nitrogen: InChIKey IJGRMHOSHXDMSA-UHFFFAOYSA-N
Temperature: 77 K
Tabular data in the source: 0
pressure (bar)	uptake (mmol/g)
0.00204405	0.544182
0.00258132	0.854199
0.00323935	1.53551
0.00374684	3.94705
0.00418642	7.27575
0.00461656	9.73093
0.00514261	11.6823
0.00614644	13.6299
0.00645758	15.4573
0.00697033	17.0994
0.00726677	18.8227
0.00975785	19.6348
0.00982433	21.1813
