Adsorption isotherm of Carbon monoxide on ZIF-8
DOI: 10.1021/Jz300292y
Adsorbate Carbon monoxide: InChIKey UGFAIRIUMAVXCW-UHFFFAOYSA-N
Temperature: 90 K
Tabular data in the source: 0
pressure (bar)	uptake (mmol/g)
0.00278482	0.67885
0.00328263	0.865215
0.00361514	0.901141
0.00423549	2.02882
0.00477034	4.73823
0.00510296	7.29321
0.00556827	9.39849
0.00614684	11.1846
0.00661408	13.0249
0.00692725	15.7103
0.00791755	16.8117
0.00821467	19.164
0.00924723	19.5407
0.00978199	19.7311
