Adsorption isotherm of Oxygen on ZIF-8
DOI: 10.1021/Jz300292y
Adsorbate Oxygen: InChIKey MYMOFIZGZYHOMD-UHFFFAOYSA-N
Temperature: 77 K
Tabular data in the source: 0
pressure (bar)	uptake (mmol/g)
0.235892	0.616062
0.311018	1.35258
0.352172	2.84761
0.36487	7.15482
0.369152	12.5767
0.399984	15.2505
0.480107	16.5867
0.636142	17.8013
0.738612	18.9618
0.841418	21.7743
0.864343	22.9867
0.866346	24.8386
