Adsorption isotherm of Argon on ZIF-8
DOI: 10.1021/Jz300292y
Adsorbate Argon: InChIKey XKRFYHLGVUSROY-UHFFFAOYSA-N
Temperature: 77 K
Tabular data in the source: 0
pressure (bar)	uptake (mmol/g)
0.00329682	0.648961
0.00374032	3.08828
0.00382086	7.2199
0.00393584	14.2148
0.0043352	15.12
0.00507034	15.5272
0.0060287	15.6911
0.00758925	16.7808
0.00762465	22.0385
0.00890473	23.6317
