Adsorption isotherm of Nitrogen on ZIF-8
DOI: 10.1021/Jz300292y
Adsorbate Nitrogen: InChIKey IJGRMHOSHXDMSA-UHFFFAOYSA-N
Temperature: 77 K
Tabular data in the source: 0
pressure (bar)	uptake (mmol/g)
0.00202514	0.345215
0.00257633	0.608248
0.00321481	1.41346
0.00376741	3.53908
0.00427846	8.1875
0.0049528	11.1253
0.00607562	13.4497
0.00649857	15.6269
0.00722516	18.9033
0.00812719	19.1402
0.00926642	19.6705
0.00974023	20.3237
