Adsorption isotherm of Argon on ZIF-8
DOI: 10.1021/Jz300292y
Adsorbate Argon: InChIKey XKRFYHLGVUSROY-UHFFFAOYSA-N
Temperature: 77 K
Tabular data in the source: 0
pressure (bar)	uptake (mmol/g)
0.00330762	0.56705
0.00372586	2.50776
0.00376256	6.15574
0.00397036	14.081
0.00443796	15.5647
0.0050393	15.5217
0.00588389	15.9649
0.00656153	16.0323
0.00734241	16.7771
0.00772638	16.9692
0.00772845	18.9199
0.00780925	22.8803
0.00888415	23.449
