Adsorption isotherm of Oxygen on ZIF-8
DOI: 10.1021/Jz300292y
Adsorbate Oxygen: InChIKey MYMOFIZGZYHOMD-UHFFFAOYSA-N
Temperature: 77 K
Tabular data in the source: 0
pressure (bar)	uptake (mmol/g)
0.00232126	0.571721
0.0031795	1.27292
0.00359774	3.21363
0.00364595	9.68584
0.0037873	13.8062
0.00397664	15.4162
0.00524579	16.8768
0.00622583	17.7954
0.00694476	18.5854
0.00773859	19.6909
0.00843265	21.8643
0.00865664	22.9131
0.00872172	24.6648
