Adsorption isotherm of Carbon monoxide on ZIF-8
DOI: 10.1021/Jz300292y
Adsorbate Carbon monoxide: InChIKey UGFAIRIUMAVXCW-UHFFFAOYSA-N
Temperature: 77 K
Tabular data in the source: 0
pressure (bar)	uptake (mmol/g)
0.000993886	0.352772
0.00178485	0.902264
0.00233082	2.08819
0.00280783	5.12281
0.00322943	8.15144
0.0039816	11.4809
0.00425154	15.0235
0.00529291	16.727
0.00578443	17.7745
0.00612526	19.2034
0.00700956	19.6304
0.00798815	19.8024
0.00946262	20.4257
0.00947384	21.4213
