Adsorption isotherm of Nitrogen on ZIF-8
DOI: 10.1021/Jz300292y
Adsorbate Nitrogen: InChIKey IJGRMHOSHXDMSA-UHFFFAOYSA-N
Temperature: 77 K
Tabular data in the source: 0
pressure (bar)	uptake (mmol/g)
0.000430261	11.8069
0.000431674	10.7374
0.00044917	9.6324
0.000466624	8.60128
0.000492964	7.48044
0.000550963	5.76944
0.000618143	3.45148
0.000644651	2.03507
