Adsorption isotherm of Carbon monoxide on ZIF-8
DOI: 10.1021/Jz300292y
Adsorbate Carbon monoxide: InChIKey UGFAIRIUMAVXCW-UHFFFAOYSA-N
Temperature: 77 K
Tabular data in the source: 0
pressure (bar)	uptake (mmol/g)
0.000951288	0.332967
0.00168702	0.919343
0.00223409	2.05159
0.00298691	6.89994
0.0038997	10.8916
0.00425841	14.7769
0.00458917	15.9903
0.00562976	17.0689
0.0061383	19.3266
0.00776904	19.7452
0.00939872	20.3177
0.00949776	21.6108
