Adsorption isotherm of Argon on ZIF-8
DOI: 10.1021/Jz300292y
Adsorbate Argon: InChIKey XKRFYHLGVUSROY-UHFFFAOYSA-N
Temperature: 90 K
Tabular data in the source: 0
pressure (bar)	uptake (mmol/g)
0.00416298	0.803488
0.00505728	2.158
0.00547555	5.52585
0.00572884	8.74393
0.00603454	12.3664
0.00619514	15.6415
0.006726	16.2275
0.0079362	17.2816
0.00960155	19.18
0.00978496	24.3862
