Adsorption isotherm of Oxygen on ZIF-8
DOI: 10.1021/Jz300292y
Adsorbate Oxygen: InChIKey MYMOFIZGZYHOMD-UHFFFAOYSA-N
Temperature: 77 K
Tabular data in the source: 0
pressure (bar)	uptake (mmol/g)
8.27e-05	15.5996
0.000118139	14.0935
0.000210098	11.9828
0.000372742	8.45052
0.000467825	6.49534
0.000533802	4.87744
0.000592414	3.50088
0.000631332	1.44824
