Adsorption isotherm of Oxygen on ZIF-8
DOI: 10.1021/Jz300292y
Adsorbate Oxygen: InChIKey MYMOFIZGZYHOMD-UHFFFAOYSA-N
Temperature: 90 K
Tabular data in the source: 0
pressure (bar)	uptake (mmol/g)
0.00367094	0.682441
0.00497391	1.73892
0.00534367	3.75827
0.00553693	6.88296
0.00563362	10.4604
0.00590136	13.5265
0.00634501	15.5533
0.0070009	16.6105
0.00817336	17.786
0.00905089	18.8656
0.00968589	20.185
0.00977196	22.9024
