Adsorption isotherm of Nitrogen on ZIF-8
DOI: 10.1021/Jz300292y
Adsorbate Nitrogen: InChIKey IJGRMHOSHXDMSA-UHFFFAOYSA-N
Temperature: 90 K
Tabular data in the source: 0
pressure (bar)	uptake (mmol/g)
0.00375729	0.611246
0.0044369	0.955587
0.00478288	1.46104
0.00514669	2.03507
0.00551981	3.6079
0.00602156	7.25751
0.00669103	10.7269
0.00737509	12.6016
0.00815679	13.8889
0.00884875	14.8998
0.00932963	18.8131
0.00978743	19.1984
