Adsorption isotherm of Cadmium(II) Ion, Water on raw hematite
DOI: 10.5004/dwt.2017.0038
Article source: Figure 9c
Adsorbate Cadmium(II) Ion: InChIKey WLZRMCYVCSSEQC-UHFFFAOYSA-N
Adsorbate Water: InChIKey XLYOFNOQVPJJNP-UHFFFAOYSA-N
Kind: experiment
Temperature: 298 K
Tabular data in the source: 0
pressure (bar)	Cadmium(II) Ion fraction	Cadmium(II) Ion uptake (mg/g)	Water fraction	Water uptake (mg/g)	total uptake (mg/g)
1.01325	18.19	1.70814			
1.01325	118.63	2.704			
1.01325	270.37	4.78751			
1.01325	342.82	5.16373			
1.01325	410.69	7.82759			
1.01325	492.82	10.4595			
