Adsorption isotherm of Lead(II) Ion, Cadmium(II) Ion, Water on raw hematite
DOI: 10.5004/dwt.2017.0038
Article source: Figure 10
Adsorbate Lead(II) Ion: InChIKey RVPVRDXYQKGNMQ-UHFFFAOYSA-N
Adsorbate Cadmium(II) Ion: InChIKey WLZRMCYVCSSEQC-UHFFFAOYSA-N
Adsorbate Water: InChIKey XLYOFNOQVPJJNP-UHFFFAOYSA-N
Kind: experiment
Temperature: 298 K
Tabular data in the source: 0
pressure (bar)	Lead(II) Ion fraction	Lead(II) Ion uptake (mg/g)	Cadmium(II) Ion fraction	Cadmium(II) Ion uptake (mg/g)	Water fraction	Water uptake (mg/g)	total uptake (mg/g)
1.01325	2.569	4.70513	38.36	1.28509			
1.01325	27.314	9.66833	183.85	1.42123			
1.01325	43.64	10.9024	394.18	2.2323			
1.01325	59.66	15.0459	720.01	1.65413			
1.01325	184.523	16.4993	909.41	1.91814			
