Adsorption isotherm of Nitrogen on Carbon Nanofiber
DOI: 10.1016/j.jcis.2006.09.036
Adsorbate Nitrogen: InChIKey IJGRMHOSHXDMSA-UHFFFAOYSA-N
Temperature: 77 K
Tabular data in the source: 0
pressure (bar)	uptake (cm3(STP)/g)
0.0213521	0.746269
0.0613873	2.23881
0.0960844	3.73134
0.13612	3.73134
0.157472	3.73134
0.186831	5.22388
0.221528	5.22388
0.24288	6.71642
0.325619	8.95522
0.437718	11.9403
0.533802	14.1791
0.629887	17.1642
0.717964	19.403
0.776682	23.8806
0.800703	24.6269
0.827393	26.8657
0.851415	29.8507
0.880774	32.0896
0.894119	36.5672
0.910133	42.5373
0.926147	51.4925
0.934154	63.4328
0.94483	75.3731
0.947499	87.3134
0.955506	97.7612
0.958175	102.985
0.960844	114.925
