Adsorption isotherm of Nitrogen on Graphite HSAG-300
DOI: 10.1016/j.jcis.2006.09.036
Adsorbate Nitrogen: InChIKey IJGRMHOSHXDMSA-UHFFFAOYSA-N
Temperature: 77 K
Tabular data in the source: 0
pressure (bar)	uptake (cm3(STP)/g)
0.00796328	63.7178
0.0291987	71.4559
0.055743	74.5222
0.0743239	79.1557
0.0955593	82.2305
0.122104	83.7425
0.153957	88.3547
0.175192	91.4295
0.191119	92.9585
0.228281	92.899
0.345075	109.811
0.430017	117.447
0.530885	126.612
0.626445	138.894
0.732622	157.377
0.775092	166.636
0.814909	177.453
0.849416	189.833
0.878615	203.776
0.897196	216.181
0.913123	228.591
0.926395	237.896
0.937012	253.423
0.942321	268.959
0.950285	278.272
0.955593	290.699
0.958248	303.13
0.97152	315.544
