Adsorption isotherm of Nitrogen on Carbon Nanotube
DOI: 10.1016/j.jcis.2006.09.036
Adsorbate Nitrogen: InChIKey IJGRMHOSHXDMSA-UHFFFAOYSA-N
Temperature: 77 K
Tabular data in the source: 0
pressure (bar)	uptake (cm3(STP)/g)
0.00784322	37.1567
0.0342936	45.3087
0.0687075	45.1623
0.0898962	40.94
0.118983	53.2129
0.156033	57.1876
0.198389	57.0074
0.246039	56.8047
0.293667	64.8666
0.343953	68.785
0.423348	76.7117
0.521251	92.8242
0.529204	88.6582
0.62446	104.782
0.711764	125.072
0.777901	141.319
0.814918	157.691
0.846652	169.953
0.875662	211.152
0.896763	239.987
0.909912	272.989
0.92037	322.532
0.933343	421.65
0.941154	471.204
0.943669	520.78
0.95369	735.613
0.953919	648.835
0.954018	611.645
0.95626	764.528
0.963874	888.462
