Adsorption isotherm of Nitrogen on Graphite HSAG-100
DOI: 10.1016/j.jcis.2006.09.036
Adsorbate Nitrogen: InChIKey IJGRMHOSHXDMSA-UHFFFAOYSA-N
Temperature: 77 K
Tabular data in the source: 0
pressure (bar)	uptake (cm3(STP)/g)
0.0106177	24.8535
0.0265443	27.9368
0.0610518	29.436
0.0769784	32.5193
0.0929049	30.9394
0.11414	34.0143
0.132721	35.5389
0.148648	35.5135
0.172538	35.4752
0.196428	38.5458
0.228281	36.9405
0.236244	38.4821
0.334458	42.9882
0.342421	44.5299
0.427363	47.5028
0.432671	47.4943
0.525576	52.0088
0.629099	58.0608
0.711386	64.1468
0.777747	71.8126
0.812254	76.4206
0.846762	82.583
0.878615	91.8585
0.897196	98.0464
0.915777	105.789
0.926395	113.544
0.937012	121.299
0.944976	132.167
0.952939	139.926
0.960902	153.903
0.966211	167.884
