Adsorption isotherm of Nitrogen on 2D-COF-1
DOI: 10.1039/c9gc00022d
Article source: Figure S4
Adsorbate Nitrogen: InChIKey IJGRMHOSHXDMSA-UHFFFAOYSA-N
Kind: experiment
Temperature: 77 K
Tabular data in the source: 0
pressure (bar)	uptake (cm3(STP)/g)
0	1.91571
0	11.4943
0	21.0728
0	28.7356
0	40.2299
0	51.7241
0	61.3027
0	68.9655
0	78.5441
0	90.0383
0	97.7011
0	107.28
0	118.774
0.00287	128.352
0.00287	137.931
0.00287	143.678
0.00287	149.425
0.005741	155.172
0.011482	160.92
0.028704	195.402
0.057408	227.969
0.083242	254.789
0.097593	275.862
0.114816	304.598
0.14352	312.261
0.166483	318.008
0.185141	323.755
0.203798	325.671
0.249725	331.418
0.307132	335.249
0.36167	339.08
0.404726	340.996
0.453523	342.912
0.50806	344.828
0.556857	346.743
0.608524	350.575
0.660191	352.49
0.711858	352.49
0.760655	358.238
0.809452	360.153
0.832415	360.153
0.861119	363.985
0.884082	363.985
0.912786	367.816
0.93862	369.732
0.958712	377.395
0.981676	385.057
0.993157	392.72
1.00177	409.962
1.00464	419.54
1.00464	421.456
0.990287	411.877
0.975935	404.215
0.952972	386.973
0.935749	383.142
0.912786	375.479
0.886953	371.648
0.861119	367.816
0.835285	367.816
0.809452	363.985
0.760655	363.985
0.708988	360.153
0.65445	360.153
0.608524	358.238
0.556857	356.322
0.50806	356.322
0.453523	354.406
0.401856	350.575
0.355929	348.659
0.302827	344.828
0.252595	340.996
0.203798	335.249
0.14352	321.839
