Adsorption isotherm of Nitrogen on Carbon
DOI: 10.1002/cjoc.201200575
Adsorbate Nitrogen: InChIKey IJGRMHOSHXDMSA-UHFFFAOYSA-N
Temperature: 77 K
Tabular data in the source: 0
pressure (bar)	uptake (cm3(STP)/g)
0.0108756	0.026867
0.0995445	0.026867
0.199654	0.026867
0.299764	0.026867
0.401305	-0.0160373
0.532878	0.026867
0.602955	0.026867
0.705925	0.026867
0.774572	0.026867
0.844649	0.026867
0.907575	0.026867
0.994814	0.026867
