Adsorption isotherm of Nitrogen on MIL-GO10
DOI: 10.1002/cjoc.201200575
Adsorbate Nitrogen: InChIKey IJGRMHOSHXDMSA-UHFFFAOYSA-N
Temperature: 77 K
Tabular data in the source: 0
pressure (bar)	uptake (cm3(STP)/g)
0.0123058	12.2975
0.0494895	16.5021
0.118136	21.4361
0.148169	22.2942
0.181063	23.5813
0.215386	24.9543
0.281173	25.3404
0.382713	25.6407
0.520007	25.8552
0.65301	26.2414
0.735958	26.2843
0.838928	26.413
0.910436	26.7562
0.946189	27.1853
0.986233	27.7001
