Adsorption isotherm of Nitrogen on MIL-GO2
DOI: 10.1002/cjoc.201200575
Adsorbate Nitrogen: InChIKey IJGRMHOSHXDMSA-UHFFFAOYSA-N
Temperature: 77 K
Tabular data in the source: 0
pressure (bar)	uptake (cm3(STP)/g)
0.0108756	0.112676
0.112416	0.498814
0.216816	0.541719
0.284033	0.541719
0.382713	0.541719
0.448499	0.584623
0.55147	0.541719
0.65587	0.541719
0.75169	0.584623
0.834638	0.627527
0.907575	0.541719
0.946189	0.541719
0.990524	0.670431
