Adsorption isotherm of Nitrogen on MIL-101
DOI: 10.1002/cjoc.201200575
Adsorbate Nitrogen: InChIKey IJGRMHOSHXDMSA-UHFFFAOYSA-N
Temperature: 77 K
Tabular data in the source: 0
pressure (bar)	uptake (cm3(STP)/g)
0.00515504	0.026867
0.0123058	13.3272
0.0337579	16.7595
0.0595005	19.3338
0.112416	23.1952
0.166761	24.611
0.186783	25.5978
0.208235	27.0566
0.249709	27.3569
0.279743	27.4856
0.389864	27.8288
0.515716	28.1292
0.641569	28.3008
0.765991	28.3866
0.864671	28.5582
0.940469	28.6869
0.966211	28.8156
0.991954	29.2447
