Adsorption isotherm of Nitrogen on MIL-GO20
DOI: 10.1002/cjoc.201200575
Adsorbate Nitrogen: InChIKey IJGRMHOSHXDMSA-UHFFFAOYSA-N
Temperature: 77 K
Tabular data in the source: 0
pressure (bar)	uptake (cm3(STP)/g)
0.0123058	4.96086
0.0437689	7.10607
0.116706	9.07967
0.148169	9.72324
0.182493	10.7529
0.215386	10.8387
0.282603	11.0104
0.382713	11.182
0.482823	11.3536
0.588653	11.4394
0.687333	11.5681
0.788873	11.611
0.876112	11.7826
0.910436	11.9543
0.949049	12.1688
0.986233	12.7265
