Adsorption isotherm of Nitrogen on MIL-GO5
DOI: 10.1002/cjoc.201200575
Adsorbate Nitrogen: InChIKey IJGRMHOSHXDMSA-UHFFFAOYSA-N
Temperature: 77 K
Tabular data in the source: 0
pressure (bar)	uptake (cm3(STP)/g)
0.0137359	0.799144
0.045199	1.18528
0.110986	1.44271
0.213956	1.70013
0.279743	1.74304
0.35983	1.78594
0.465661	1.70013
0.565771	1.74304
0.668741	1.74304
0.767421	1.70013
0.870392	1.74304
0.939038	1.82885
0.987663	1.95756
