Adsorption isotherm of Nitrogen on LZU-306
DOI: 10.1002/anie.202007230
Article source: Figure 4b
Adsorbate Nitrogen: InChIKey IJGRMHOSHXDMSA-UHFFFAOYSA-N
Kind: experiment
Temperature: 77 K
Tabular data in the source: 0
pressure (bar)	uptake (cm3(STP)/g)
0.002807	0
0.002807	28.7425
0.002807	35.9281
0.002807	46.7066
0.002807	61.0778
0.002807	68.2635
0.002807	82.6347
0.002807	104.192
0.002807	359.281
0.002807	402.395
0.00842	438.323
0.030875	470.659
0.047715	477.844
0.067363	486.826
0.084204	490.419
0.126305	495.808
0.106658	495.808
0.140339	499.401
0.15718	499.401
0.168407	501.198
0.188055	502.994
0.204895	504.79
0.252611	508.383
0.30594	511.976
0.359269	511.976
0.404177	513.772
0.454699	515.569
0.508028	517.365
0.558551	517.365
0.609073	519.162
0.659595	520.958
0.70731	520.958
0.757832	522.755
0.811161	524.551
0.833616	524.551
0.861684	526.347
0.886945	526.347
0.912206	528.144
0.937467	528.144
0.962728	529.94
0.996409	531.737
0	253.293
0.002807	395.21
0.002807	416.766
0.002807	434.731
0.011227	450.898
0.022454	468.862
0.033681	477.844
0.036488	481.437
0.053329	486.826
0.072976	492.216
0.098238	497.605
0.143146	502.994
0.159987	502.994
0.171214	506.587
0.202089	510.18
0.221736	510.18
0.252611	511.976
0.30594	513.772
0.336814	515.569
0.404177	519.162
0.457506	519.162
0.505222	522.755
0.555744	524.551
0.609073	526.347
0.659595	526.347
0.710117	528.144
0.760639	528.144
0.811161	528.144
0.836422	529.94
0.886945	529.94
0.915012	531.737
0.940274	531.737
0.982375	531.737
1.00483	533.533
