Adsorption isotherm of Nitrogen on Carbon AM-3
DOI: 10.1016/j.jcis.2011.09.019
Adsorbate Nitrogen: InChIKey IJGRMHOSHXDMSA-UHFFFAOYSA-N
Temperature: 77 K
Tabular data in the source: 0
pressure (bar)	uptake (cm3(STP)/g)
0.00372489	29.0506
0.00515504	122.01
0.00658518	54.7932
0.00658518	184.936
0.00944547	249.293
0.0223168	265.739
0.0537799	286.476
0.105265	307.213
0.182493	322.945
0.25686	334.386
0.311206	341.537
0.412746	350.118
0.512856	357.268
0.611536	363.704
0.714506	369.425
0.807465	376.575
0.901855	386.586
0.949049	400.173
0.973362	410.184
0.989093	431.636
