Adsorption isotherm of Carbon Dioxide on Carbon AM-2
DOI: 10.1016/j.jcis.2011.09.019
Adsorbate Carbon Dioxide: InChIKey CURLTUGMZLYLDI-UHFFFAOYSA-N
Temperature: 298 K
Tabular data in the source: 0
pressure (bar)	uptake (mg/g)
0.295241	89.5958
2.85862	196.075
4.48538	238.328
6.35862	272.131
9.66144	314.384
12.7671	346.497
16.2178	378.61
17.7952	387.061
19.5206	407.342
22.6755	444.525
24.5981	464.807
26.1262	483.399
27.753	507.061
29.429	537.483
31.0065	564.525
