Adsorption isotherm of Carbon Dioxide on Carbon AM-0.5
DOI: 10.1016/j.jcis.2011.09.019
Adsorbate Carbon Dioxide: InChIKey CURLTUGMZLYLDI-UHFFFAOYSA-N
Temperature: 298 K
Tabular data in the source: 0
pressure (bar)	uptake (mg/g)
0.02252	10.989
0.0408298	19.7214
0.0859002	33.2425
0.130971	43.9467
0.187309	54.0876
0.254914	63.665
0.361957	75.2143
0.463365	84.2284
0.563365	91.834
0.666182	98.3129
0.763365	103.665
0.860548	110.144
0.961957	115.214
0.992943	116.341
