Adsorption isotherm of Carbon Dioxide on Zeolite 13X
DOI: 10.1016/j.jcis.2011.09.019
Adsorbate Carbon Dioxide: InChIKey CURLTUGMZLYLDI-UHFFFAOYSA-N
Temperature: 298 K
Tabular data in the source: 0
pressure (bar)	uptake (mg/g)
0.0417962	8.469
1.22489	79.4549
2.61926	120.018
4.3094	147.061
7.52067	174.103
10.6052	196.075
14.1122	216.356
17.3657	240.018
20.6615	260.3
23.9573	292.413
25.4362	302.553
26.9995	319.455
28.6897	334.666
30.2108	346.497
