Adsorption isotherm of Carbon Dioxide on Carbon AM-4
DOI: 10.1016/j.jcis.2011.09.019
Adsorbate Carbon Dioxide: InChIKey CURLTUGMZLYLDI-UHFFFAOYSA-N
Temperature: 298 K
Tabular data in the source: 0
pressure (bar)	uptake (mg/g)
0.0840497	13.5394
0.506585	69.3141
1.09813	109.877
2.83053	209.596
4.56292	280.582
7.77419	368.469
11.1967	446.215
14.577	523.962
17.8305	601.708
19.5207	645.652
21.1686	691.286
22.901	730.159
24.4643	782.554
26.1545	826.497
29.3235	983.68
30.8446	1041.15
