Adsorption isotherm of Carbon Dioxide on Carbon AM
DOI: 10.1016/j.jcis.2011.09.019
Adsorbate Carbon Dioxide: InChIKey CURLTUGMZLYLDI-UHFFFAOYSA-N
Temperature: 298 K
Tabular data in the source: 0
pressure (bar)	uptake (mg/g)
0.0154777	0.848119
0.0520974	1.12981
0.118295	1.4115
0.170407	1.12981
0.218295	1.12981
0.270407	1.4115
0.325337	1.4115
0.412661	1.69319
0.514069	1.97488
0.614069	1.97488
0.716886	2.81995
0.821112	2.81995
0.918295	2.81995
1.00703	3.10164
