Adsorption isotherm of Nitrogen on Carbon AM-0.5
DOI: 10.1016/j.jcis.2011.09.019
Adsorbate Nitrogen: InChIKey IJGRMHOSHXDMSA-UHFFFAOYSA-N
Temperature: 77 K
Tabular data in the source: 0
pressure (bar)	uptake (cm3(STP)/g)
0.00515504	63.3741
0.0323278	76.2454
0.0809526	81.9659
0.15675	86.2564
0.25829	91.9769
0.3584	94.8372
0.459941	97.6975
0.560051	101.273
0.6573	104.848
0.705925	107.709
0.75312	111.284
0.843219	123.44
0.898994	132.021
0.949049	142.747
0.974792	149.898
0.989093	168.49
