Adsorption isotherm of Nitrogen on Carbon AM-1
DOI: 10.1016/j.jcis.2011.09.019
Adsorbate Nitrogen: InChIKey IJGRMHOSHXDMSA-UHFFFAOYSA-N
Temperature: 77 K
Tabular data in the source: 0
pressure (bar)	uptake (cm3(STP)/g)
0.00658518	208.534
0.0223168	237.852
0.0537799	255.013
0.105265	270.745
0.182493	283.616
0.259721	290.767
0.35554	300.063
0.45708	305.783
0.55862	309.359
0.660161	314.364
0.75884	319.37
0.85323	326.52
0.903285	335.101
0.941899	345.112
0.974792	360.129
0.990524	407.323
