Adsorption isotherm of Carbon Dioxide on Carbon AM-3
DOI: 10.1016/j.jcis.2011.09.019
Adsorbate Carbon Dioxide: InChIKey CURLTUGMZLYLDI-UHFFFAOYSA-N
Temperature: 298 K
Tabular data in the source: 0
pressure (bar)	uptake (mg/g)
0.147354	32.131
1.03468	126.779
2.66144	201.145
4.53468	256.92
6.06285	294.103
9.51355	354.948
12.8164	405.652
16.2671	451.286
19.6192	507.061
21.1966	530.723
22.922	559.455
24.4995	586.497
26.2248	625.37
27.8516	659.173
29.3305	694.666
31.0065	738.61
