Adsorption isotherm of Carbon Dioxide on Carbon
DOI: 10.1016/j.jcis.2011.09.019
Adsorbate Carbon Dioxide: InChIKey CURLTUGMZLYLDI-UHFFFAOYSA-N
Temperature: 298 K
Tabular data in the source: 0
pressure (bar)	uptake (mg/g)
0.168557	11.8493
0.80236	54.1028
1.26715	79.4549
2.61926	145.37
4.22489	191.004
7.39391	277.201
10.6052	341.427
13.9855	400.582
17.239	459.737
20.5348	508.751
23.577	562.835
26.746	618.61
28.4784	645.652
29.9573	679.455
