Adsorption isotherm of Carbon Dioxide on Carbon AM-1
DOI: 10.1016/j.jcis.2011.09.019
Adsorbate Carbon Dioxide: InChIKey CURLTUGMZLYLDI-UHFFFAOYSA-N
Temperature: 298 K
Tabular data in the source: 0
pressure (bar)	uptake (mg/g)
0.344537	43.962
0.88679	72.6944
2.80933	114.948
4.38679	125.089
7.7389	150.441
11.3375	184.244
14.6896	212.976
17.9431	245.089
19.7671	263.68
21.2952	287.342
24.7459	348.187
26.4713	381.99
27.9009	412.413
29.5769	456.356
31.1544	507.061
