Adsorption isotherm of Carbon Dioxide on Carbon AM-4
DOI: 10.1016/j.jcis.2011.09.019
Adsorbate Carbon Dioxide: InChIKey CURLTUGMZLYLDI-UHFFFAOYSA-N
Temperature: 298 K
Tabular data in the source: 0
pressure (bar)	uptake (mg/g)
0.00561856	1.69319
0.0577312	14.6509
0.132379	28.1721
0.208435	41.1298
0.287309	52.3974
0.405619	67.0453
0.507027	79.158
0.605619	90.1439
0.707027	100.566
0.811252	111.271
0.911252	118.595
0.990126	126.2
