Adsorption isotherm of Carbon Dioxide on Carbon AM-1
DOI: 10.1016/j.jcis.2011.09.019
Adsorbate Carbon Dioxide: InChIKey CURLTUGMZLYLDI-UHFFFAOYSA-N
Temperature: 298 K
Tabular data in the source: 0
pressure (bar)	uptake (mg/g)
0.0309707	14.3692
0.0563228	23.665
0.133788	43.9467
0.1859	54.3692
0.232379	63.3833
0.290126	73.8059
0.357731	84.2284
0.457731	98.3129
0.556323	111.552
0.654914	122.257
0.756323	132.679
0.85914	143.102
0.956323	151.834
0.9859	154.369
