Adsorption isotherm of Carbon Dioxide on Carbon AM-0.5
DOI: 10.1016/j.jcis.2011.09.019
Adsorbate Carbon Dioxide: InChIKey CURLTUGMZLYLDI-UHFFFAOYSA-N
Temperature: 298 K
Tabular data in the source: 0
pressure (bar)	uptake (mg/g)
1.03468	87.9056
2.66144	123.399
4.38679	140.3
7.68961	163.962
10.9924	182.554
14.4924	192.694
17.6474	207.906
21.0488	221.427
24.3023	236.638
26.1262	251.849
27.6544	255.23
29.2812	263.68
31.0065	283.962
