Adsorption isotherm of Nitrogen on Carbon AM
DOI: 10.1016/j.jcis.2011.09.019
Adsorbate Nitrogen: InChIKey IJGRMHOSHXDMSA-UHFFFAOYSA-N
Temperature: 77 K
Tabular data in the source: 0
pressure (bar)	uptake (cm3(STP)/g)
0.00658518	4.73821
0.0666512	4.73821
0.129577	4.73821
0.226827	6.16836
0.304055	7.5985
0.391294	8.31357
0.438488	7.5985
0.485683	9.02864
0.55433	11.8889
0.610106	11.8889
0.661591	11.8889
0.724517	12.604
0.776002	14.7492
0.860381	16.1794
0.941899	17.6095
1.00196	19.0396
