Adsorption isotherm of Carbon Dioxide on Carbon AM-3
DOI: 10.1016/j.jcis.2011.09.019
Adsorbate Carbon Dioxide: InChIKey CURLTUGMZLYLDI-UHFFFAOYSA-N
Temperature: 298 K
Tabular data in the source: 0
pressure (bar)	uptake (mg/g)
0.0126608	4.2284
0.0394214	14.6509
0.107027	31.2707
0.183083	47.6087
0.257731	60.003
0.350689	73.5242
0.454914	86.4819
0.553506	98.3129
0.656323	109.299
0.760548	118.876
0.85914	128.454
0.956323	136.904
0.987309	139.44
