Adsorption isotherm of Nitrogen on Carbon AM-4
DOI: 10.1016/j.jcis.2011.09.019
Adsorbate Nitrogen: InChIKey IJGRMHOSHXDMSA-UHFFFAOYSA-N
Temperature: 77 K
Tabular data in the source: 0
pressure (bar)	uptake (cm3(STP)/g)
0.00372489	71.2399
0.00372489	139.887
0.00515504	24.7602
0.00658518	200.668
0.00944547	231.416
0.0123058	242.142
0.035188	276.465
0.0809526	307.213
0.15246	331.526
0.228257	347.257
0.298334	357.984
0.394154	369.425
0.508565	380.866
0.614396	388.732
0.763131	398.743
0.861811	409.469
0.904715	413.044
0.95334	423.77
0.990524	445.222
