Adsorption isotherm of Carbon Dioxide on Carbon AM-2
DOI: 10.1016/j.jcis.2011.09.019
Adsorbate Carbon Dioxide: InChIKey CURLTUGMZLYLDI-UHFFFAOYSA-N
Temperature: 298 K
Tabular data in the source: 0
pressure (bar)	uptake (mg/g)
0.0211115	9.58051
0.0661819	24.5101
0.105619	38.0312
0.157731	51.2707
0.211252	62.82
0.261957	72.6791
0.35914	90.1439
0.456323	104.792
0.557731	118.031
0.661957	130.707
0.760548	141.975
0.860548	152.116
0.961957	161.693
0.988717	163.383
