Adsorption isotherm of Nitrogen on Carbon AM-2
DOI: 10.1016/j.jcis.2011.09.019
Adsorbate Nitrogen: InChIKey IJGRMHOSHXDMSA-UHFFFAOYSA-N
Temperature: 77 K
Tabular data in the source: 0
pressure (bar)	uptake (cm3(STP)/g)
0.00515504	79.1057
0.00515504	132.021
0.00658518	163.484
0.00944547	243.572
0.0394785	278.611
0.102405	297.202
0.189643	312.219
0.271162	321.515
0.35983	327.951
0.459941	334.386
0.55862	342.967
0.6573	350.118
0.75884	358.699
0.831778	365.849
0.901855	375.86
0.940469	384.441
0.973362	395.167
0.994814	407.323
