Adsorption isotherm of Carbon Dioxide on Carbon AM-4
DOI: 10.1016/j.jcis.2011.09.019
Adsorbate Carbon Dioxide: InChIKey CURLTUGMZLYLDI-UHFFFAOYSA-N
Temperature: 298 K
Tabular data in the source: 0
pressure (bar)	uptake (mg/g)
0.0487622	18.6098
0.88679	106.497
2.71073	209.596
4.53468	275.511
7.7882	368.469
11.2389	447.906
14.591	520.582
17.8938	605.089
21.0981	691.286
24.5488	779.173
25.9783	831.568
27.753	900.863
29.2812	985.37
30.8586	1046.22
