Adsorption isotherm of Carbon Dioxide on Carbon AM
DOI: 10.1016/j.jcis.2011.09.019
Adsorbate Carbon Dioxide: InChIKey CURLTUGMZLYLDI-UHFFFAOYSA-N
Temperature: 298 K
Tabular data in the source: 0
pressure (bar)	uptake (mg/g)
0.000534	6.77886
1.28116	5.08872
2.95721	8.469
6.30933	6.77886
9.31637	5.08872
12.7671	6.77886
16.0206	6.77886
19.422	6.77886
22.6755	8.469
25.929	5.08872
27.7037	6.77886
29.1826	8.469
30.8586	6.77886
