Adsorption isotherm of Carbon Dioxide on Nanospace Of Nanogate-SWCNH
DOI: 10.1246/Cl.2011.1089
Adsorbate Carbon Dioxide: InChIKey CURLTUGMZLYLDI-UHFFFAOYSA-N
Temperature: 273 K
Tabular data in the source: 0
pressure (bar)	uptake (mmol/g)
0.0183925	0.11802
0.0640048	0.192822
0.131155	0.286404
0.19028	0.361311
0.22784	0.423643
0.281726	0.461285
0.321989	0.523638
0.381169	0.586138
0.427031	0.605105
0.478048	0.67995
0.521207	0.698897
0.575038	0.748947
0.617947	0.823728
0.672055	0.81174
0.717695	0.880338
0.763473	0.917917
0.820034	0.961785
0.860463	0.986914
0.911591	1.03694
0.943746	1.09923
