Adsorption isotherm of Xenon on Nanogate-SWCNH
DOI: 10.1246/Cl.2011.1089
Adsorbate Xenon: InChIKey FHNFHKCVQCLJFQ-UHFFFAOYSA-N
Temperature: 303 K
Tabular data in the source: 0
pressure (bar)	uptake (mmol/g)
0.0322581	0.0233071
0.0716846	0.0464415
0.121864	0.0934009
0.172043	0.14036
0.215054	0.139324
0.265233	0.186284
0.315412	0.233243
0.362007	0.256205
0.412186	0.230913
0.462366	0.277872
0.512545	0.324831
0.55914	0.347793
0.612903	0.41875
0.666667	0.393371
0.709677	0.440503
0.759857	0.463379
0.806452	0.510425
0.853047	0.509302
0.899642	0.556348
0.953405	0.579137
1	0.626183
