Adsorption isotherm of Methane on Nanogate-SWCNH
DOI: 10.1246/Cl.2011.1089
Adsorbate Methane: InChIKey VNWKTOKETHGBQD-UHFFFAOYSA-N
Temperature: 273 K
Tabular data in the source: 0
pressure (bar)	uptake (mmol/g)
0.0159389	0.170535
0.0534434	0.375569
0.125888	0.700483
0.182338	0.8889
0.225359	1.02597
0.279134	1.19731
0.322265	1.26631
0.376041	1.43765
0.421902	1.48968
0.472975	1.66097
0.516106	1.72996
0.57264	1.86732
0.618418	1.97041
0.666982	2.02251
0.718082	2.17677
0.763916	2.24582
0.812425	2.33195
0.863553	2.4692
0.911978	2.60639
0.941569	2.69211
