Adsorption isotherm of Nitrogen on Open-SWCNH
DOI: 10.1246/Cl.2011.1089
Adsorbate Nitrogen: InChIKey IJGRMHOSHXDMSA-UHFFFAOYSA-N
Temperature: 77 K
Tabular data in the source: 0
pressure (bar)	uptake (mmol/g)
0.0202672	9.86565
0.0208573	5.16343
0.0240673	8.14574
0.0344599	11.0142
0.070057	12.968
0.123604	14.6945
0.166441	16.0757
0.220031	17.4581
0.262897	18.6099
0.312917	19.8772
0.359382	20.9148
0.41303	21.8384
0.455925	22.7609
0.509615	23.3405
0.548912	24.3772
0.606187	24.9572
0.65268	25.7654
0.692049	26.2286
0.749295	27.038
0.792204	27.8458
0.849421	28.8846
0.885047	30.609
