Adsorption isotherm of Xenon on Closed-SWCNH
DOI: 10.1246/Cl.2011.1089
Adsorbate Xenon: InChIKey FHNFHKCVQCLJFQ-UHFFFAOYSA-N
Temperature: 303 K
Tabular data in the source: 0
pressure (bar)	uptake (mmol/g)
0.121864	0.021149
0.218638	0.0429023
0.268817	0.0416937
0.322581	0.0403989
0.365591	0.063447
0.415771	0.0863224
0.469534	0.109112
0.512545	0.13216
0.55914	0.155121
0.612903	0.177911
0.65233	0.201045
0.713262	0.223661
0.759857	0.246623
0.810036	0.245415
0.853047	0.268463
0.90681	0.267168
0.956989	0.290043
0.996416	0.313178
