Adsorption isotherm of Methane on Closed-SWCNH
DOI: 10.1246/Cl.2011.1089
Adsorbate Methane: InChIKey VNWKTOKETHGBQD-UHFFFAOYSA-N
Temperature: 273 K
Tabular data in the source: 0
pressure (bar)	uptake (mmol/g)
0.0185309	0.238669
0.0560907	0.409665
0.128729	0.615446
0.179913	0.718652
0.225774	0.770687
0.27966	0.873951
0.322874	0.89189
0.379518	0.961174
0.422705	0.996132
0.479376	1.0484
0.51986	1.0833
0.573774	1.16954
0.619718	1.17052
0.668282	1.22261
0.716819	1.29172
0.765438	1.30978
0.819379	1.379
0.865296	1.397
0.91659	1.43213
0.943478	1.5178
