Adsorption isotherm of Sulfur Hexafluoride on Open-SWCNH
DOI: 10.1246/Cl.2011.1089
Adsorbate Sulfur Hexafluoride: InChIKey SFZCNBIFKDRMGX-UHFFFAOYSA-N
Temperature: 303 K
Tabular data in the source: 0
pressure (bar)	uptake (mmol/g)
0.0252473	0.173885
0.0469289	0.260828
0.0685674	0.412978
0.075785	0.456449
0.104627	0.673806
0.122628	0.847691
0.144295	0.956369
0.169585	1.06505
0.194847	1.2172
0.216543	1.2824
0.245442	1.41282
0.267124	1.49976
0.2924	1.63018
0.317676	1.76059
0.335734	1.84753
0.364677	1.91274
0.389953	2.04315
0.436925	2.23877
0.46223	2.32572
0.509259	2.43439
0.534578	2.4996
0.57797	2.63002
0.606884	2.73869
0.628566	2.82564
0.650262	2.89084
0.682827	2.95605
0.708146	3.02126
0.733437	3.12994
0.776843	3.23861
0.831119	3.34729
0.874526	3.45597
0.921541	3.58639
0.943265	3.60812
0.97944	3.69506
