Adsorption isotherm of Sulfur Hexafluoride on Closed-SWCNH
DOI: 10.1246/Cl.2011.1089
Adsorbate Sulfur Hexafluoride: InChIKey SFZCNBIFKDRMGX-UHFFFAOYSA-N
Temperature: 303 K
Tabular data in the source: 0
pressure (bar)	uptake (mmol/g)
0.0325799	0.0434713
0.0723775	0.130414
0.123073	0.173885
0.173798	0.173885
0.220856	0.239092
0.267958	0.239092
0.311436	0.239092
0.34403	0.260828
0.391132	0.260828
0.41648	0.282564
0.441842	0.282564
0.492552	0.304299
0.510654	0.326035
0.539639	0.326035
0.59035	0.347771
0.608466	0.347771
0.637451	0.347771
0.709901	0.369506
0.756973	0.412978
0.804075	0.412978
0.858408	0.434713
0.909133	0.434713
0.952611	0.434713
