Adsorption isotherm of Methane on Closed-SWCNH
DOI: 10.1246/Cl.2011.1089
Adsorbate Methane: InChIKey VNWKTOKETHGBQD-UHFFFAOYSA-N
Temperature: 160 K
Tabular data in the source: 0
pressure (bar)	uptake (mmol/g)
0.0217391	0.790383
0.0652174	1.1791
0.108696	1.36913
0.163043	1.55701
0.210145	1.54765
0.26087	1.53758
0.311594	1.72617
0.369565	1.91333
0.40942	1.90541
0.467391	2.09257
0.514493	2.28189
0.557971	2.27325
0.601449	2.26461
0.652174	2.45321
0.695652	2.44457
0.753623	2.43305
0.800725	2.4237
0.851449	2.61229
0.898551	2.80161
0.945652	2.59358
0.992754	2.98157
