Adsorption isotherm of Methane on Nanogate-SWCNH
DOI: 10.1246/Cl.2011.1089
Adsorbate Methane: InChIKey VNWKTOKETHGBQD-UHFFFAOYSA-N
Temperature: 160 K
Tabular data in the source: 0
pressure (bar)	uptake (mmol/g)
0.0253623	1.58436
0.0652174	3.16585
0.115942	4.34783
0.141304	4.93881
0.166667	5.13245
0.184783	5.32753
0.210145	5.52116
0.23913	5.71408
0.26087	6.10711
0.311594	6.29571
0.336957	6.48935
0.362319	6.68298
0.405797	7.07169
0.460145	7.0609
0.481884	7.25525
0.503623	7.05226
0.532609	7.44385
0.554348	7.63821
0.601449	7.82753
0.652174	8.01612
0.702899	8.20472
0.75	8.39404
0.800725	8.58264
0.851449	8.57256
0.898551	8.96055
0.949275	8.95047
0.98913	9.14123
