Adsorption isotherm of Nitrogen on Closed-SWCNH
DOI: 10.1246/Cl.2011.1089
Adsorbate Nitrogen: InChIKey IJGRMHOSHXDMSA-UHFFFAOYSA-N
Temperature: 77 K
Tabular data in the source: 0
pressure (bar)	uptake (mmol/g)
0.0213755	1.03466
0.0319553	2.41215
0.0677107	3.10439
0.117846	3.45421
0.16801	3.57465
0.214576	3.80937
0.253973	4.04327
0.311305	4.16454
0.361441	4.51436
0.40802	4.63439
0.458156	4.98421
0.504721	5.21893
0.558455	5.45447
0.605006	5.80388
0.651572	6.0386
0.701693	6.50311
0.748244	6.85251
0.798365	7.31702
0.844858	8.12518
0.891294	9.3921
0.941156	11.921
0.972579	18.5766
