Adsorption isotherm of Sulfur Hexafluoride on Nanogate-SWCNH
DOI: 10.1246/Cl.2011.1089
Adsorbate Sulfur Hexafluoride: InChIKey SFZCNBIFKDRMGX-UHFFFAOYSA-N
Temperature: 303 K
Tabular data in the source: 0
pressure (bar)	uptake (mmol/g)
0.0651743	0.065207
0.101377	0.108678
0.148464	0.130414
0.195566	0.130414
0.246262	0.173885
0.293363	0.173885
0.369421	0.217357
0.460016	0.195621
0.561436	0.239092
0.626639	0.260828
0.655581	0.326035
0.728045	0.326035
0.822262	0.304299
0.880219	0.326035
0.930944	0.326035
0.981654	0.347771
