Adsorption isotherm of Carbon Dioxide on Closed-SWCNH
DOI: 10.1246/Cl.2011.1089
Adsorbate Carbon Dioxide: InChIKey CURLTUGMZLYLDI-UHFFFAOYSA-N
Temperature: 273 K
Tabular data in the source: 0
pressure (bar)	uptake (mmol/g)
0.0208184	0.180079
0.0607764	0.310674
0.127622	0.472498
0.181342	0.547364
0.22701	0.609758
0.278138	0.659787
0.321131	0.715957
0.37772	0.75362
0.42074	0.803587
0.474737	0.816413
0.52046	0.8664
0.574374	0.897839
0.617532	0.916786
0.665986	0.96059
0.711902	0.96715
0.763031	1.01718
0.817	1.03621
0.865508	1.06761
0.911287	1.10519
