Adsorption isotherm of Methane on Nanospace Of Nanogate-SWCNH
DOI: 10.1246/Cl.2011.1089
Adsorbate Methane: InChIKey VNWKTOKETHGBQD-UHFFFAOYSA-N
Temperature: 273 K
Tabular data in the source: 0
pressure (bar)	uptake (mmol/g)
0.0214825	0.0855552
0.0538585	0.120283
0.123988	0.206873
0.177957	0.259081
0.223791	0.328134
0.27776	0.380341
0.326296	0.449452
0.377507	0.53564
0.420666	0.587617
0.474608	0.656843
0.520469	0.708878
0.574411	0.778104
0.617597	0.813062
0.668808	0.89925
0.717372	0.951342
0.768611	1.02051
0.817147	1.08962
0.865711	1.14171
0.91968	1.19392
0.946623	1.24555
