Adsorption isotherm of Nitrogen on Nanogate-SWCNH
DOI: 10.1246/Cl.2011.1089
Adsorbate Nitrogen: InChIKey IJGRMHOSHXDMSA-UHFFFAOYSA-N
Temperature: 77 K
Tabular data in the source: 0
pressure (bar)	uptake (mmol/g)
0.0173307	4.70427
0.0205119	7.91595
0.0206414	6.88376
0.0238801	9.63668
0.0273348	10.6693
0.0737419	12.1656
0.109425	13.4313
0.159431	14.8133
0.209466	15.9659
0.25593	17.0034
0.305965	18.1561
0.34886	19.0785
0.398938	19.8871
0.449015	20.6957
0.502663	21.6193
0.552769	22.1985
0.599292	22.7773
0.649384	23.4712
0.695906	24.05
0.742414	24.7435
0.785324	25.5512
0.838957	26.5896
0.888934	28.201
0.928	31.0727
