Adsorption isotherm of Xenon on Open-SWCNH
DOI: 10.1246/Cl.2011.1089
Adsorbate Xenon: InChIKey FHNFHKCVQCLJFQ-UHFFFAOYSA-N
Temperature: 303 K
Tabular data in the source: 0
pressure (bar)	uptake (mmol/g)
0.0358423	0.143641
0.0681004	0.407787
0.121864	0.623248
0.168459	0.790714
0.215054	0.958179
0.265233	1.07739
0.315412	1.22069
0.362007	1.36407
0.412186	1.45919
0.46595	1.55424
0.512545	1.67353
0.555556	1.76883
0.612903	1.86379
0.663082	1.95892
0.702509	2.0543
0.759857	2.14926
0.806452	2.22039
0.853047	2.29152
0.903226	2.36256
0.956989	2.43352
0.996416	2.50482
