Adsorption isotherm of Carbon Dioxide on Nanogate-SWCNH
DOI: 10.1246/Cl.2011.1089
Adsorbate Carbon Dioxide: InChIKey CURLTUGMZLYLDI-UHFFFAOYSA-N
Temperature: 273 K
Tabular data in the source: 0
pressure (bar)	uptake (mmol/g)
0.0260022	0.229752
0.0547071	0.459525
0.12384	0.714427
0.179959	0.857556
0.22535	0.981989
0.278959	1.08167
0.32173	1.18747
0.375285	1.29956
0.42098	1.35575
0.474562	1.46163
0.517554	1.5178
0.568516	1.60506
0.614101	1.68606
0.665285	1.72368
0.713572	1.80471
0.761859	1.88574
0.807527	1.94813
0.861302	2.01059
0.906831	2.104
0.939069	2.14768
