Adsorption isotherm of Methane on Open-SWCNH
DOI: 10.1246/Cl.2011.1089
Adsorbate Methane: InChIKey VNWKTOKETHGBQD-UHFFFAOYSA-N
Temperature: 160 K
Tabular data in the source: 0
pressure (bar)	uptake (mmol/g)
0.0253623	0.0253623
0.0652174	10.3182
0.0688406	11.1121
0.112319	13.2889
0.144928	14.0772
0.166667	14.6689
0.188406	15.2606
0.210145	15.2563
0.235507	15.8472
0.257246	16.0416
0.286232	16.2345
0.307971	16.2302
0.384058	17.0098
0.431159	17.5965
0.456522	17.5914
0.481884	17.7851
0.507246	17.9787
0.528986	18.173
0.554348	18.9627
0.605072	19.1513
0.655797	19.7373
0.702899	20.3239
0.753623	20.5125
0.800725	21.0992
0.851449	21.6851
0.898551	22.0731
0.945652	22.0638
0.992754	22.6504
