Adsorption isotherm of Tartronic acid, Water on Dowex 50WX-8
DOI: 10.1007/s10450-017-9882-5
Article source: Figure 1
Adsorbate Tartronic acid: InChIKey ROBFUDYVXSDBQM-UHFFFAOYSA-N
Adsorbate Water: InChIKey XLYOFNOQVPJJNP-UHFFFAOYSA-N
Kind: experiment
Temperature: 293 K
Tabular data in the source: 0
pressure (bar)	Tartronic acid fraction	Tartronic acid uptake (g/g)	Water fraction	Water uptake (g/g)	total uptake (g/g)
1.01325	0.0088	0.0091			
1.01325	0.951	0.0294			
1.01325	4.9802	0.3422			
1.01325	5.0686	0.5012			
1.01325	10.0226	0.923			
1.01325	14.0342	1.2653			
