Adsorption isotherm of Tartronic acid, Water on Dowex 50WX-4
DOI: 10.1007/s10450-017-9882-5
Article source: Figure 2
Adsorbate Tartronic acid: InChIKey ROBFUDYVXSDBQM-UHFFFAOYSA-N
Adsorbate Water: InChIKey XLYOFNOQVPJJNP-UHFFFAOYSA-N
Kind: experiment
Temperature: 293 K
Tabular data in the source: 0
pressure (bar)	Tartronic acid fraction	Tartronic acid uptake (g/g)	Water fraction	Water uptake (g/g)	total uptake (g/g)
1.01325	0.0116	0.0224			
1.01325	2.5123	0.8217			
1.01325	4.9667	1.6937			
1.01325	7.5687	2.5937			
1.01325	9.9913	3.6058			
