Adsorption isotherm of Tartronic acid, Water on Dowex 50WX-2
DOI: 10.1007/s10450-017-9882-5
Article source: Figure 3
Adsorbate Tartronic acid: InChIKey ROBFUDYVXSDBQM-UHFFFAOYSA-N
Adsorbate Water: InChIKey XLYOFNOQVPJJNP-UHFFFAOYSA-N
Kind: experiment
Temperature: 293 K
Tabular data in the source: 0
pressure (bar)	Tartronic acid fraction	Tartronic acid uptake (g/g)	Water fraction	Water uptake (g/g)	total uptake (g/g)
1.01325	0.0087	0.0227			
1.01325	1.0182	0.5906			
1.01325	2.346	1.113			
1.01325	5.0246	2.686			
1.01325	7.6772	4.3044			
1.01325	9.9335	5.6843			
