Adsorption isotherm of Glyceric acid, Water on Dowex 50WX-4
DOI: 10.1007/s10450-017-9882-5
Article source: Figure 2
Adsorbate Glyceric acid: InChIKey RBNPOMFGQQGHHO-UHFFFAOYSA-N
Adsorbate Water: InChIKey XLYOFNOQVPJJNP-UHFFFAOYSA-N
Kind: experiment
Temperature: 293 K
Tabular data in the source: 0
pressure (bar)	Glyceric acid fraction	Glyceric acid uptake (g/g)	Water fraction	Water uptake (g/g)	total uptake (g/g)
1.01325	0.0116	0.0224			
1.01325	2.3502	1.0905			
1.01325	2.4428	1.1464			
1.01325	4.9349	2.3769			
1.01325	7.7279	3.8871			
1.01325	9.6845	4.8546			
