Adsorption isotherm of Glyceric acid, Water on Dowex 50WX-8
DOI: 10.1007/s10450-017-9882-5
Article source: Figure 1
Adsorbate Glyceric acid: InChIKey RBNPOMFGQQGHHO-UHFFFAOYSA-N
Adsorbate Water: InChIKey XLYOFNOQVPJJNP-UHFFFAOYSA-N
Kind: experiment
Temperature: 293 K
Tabular data in the source: 0
pressure (bar)	Glyceric acid fraction	Glyceric acid uptake (g/g)	Water fraction	Water uptake (g/g)	total uptake (g/g)
1.01325	0.0088	0.0091			
1.01325	1.4755	0.2882			
1.01325	5.1094	1.0168			
1.01325	10.1522	1.8247			
1.01325	11.4794	2.7194			
1.01325	11.5585	2.6581			
