Adsorption isotherm of Glyceric acid, Water on Dowex 50WX-2
DOI: 10.1007/s10450-017-9882-5
Article source: Figure 3
Adsorbate Glyceric acid: InChIKey RBNPOMFGQQGHHO-UHFFFAOYSA-N
Adsorbate Water: InChIKey XLYOFNOQVPJJNP-UHFFFAOYSA-N
Kind: experiment
Temperature: 293 K
Tabular data in the source: 0
pressure (bar)	Glyceric acid fraction	Glyceric acid uptake (g/g)	Water fraction	Water uptake (g/g)	total uptake (g/g)
1.01325	0.0087	0.0227			
1.01325	0.9864	0.7269			
1.01325	4.8626	3.5718			
1.01325	7.2317	5.7638			
1.01325	9.7657	7.632			
