Adsorption isotherm of Carbon Dioxide on IRMOF-10
DOI: 10.1021/La800369s
Adsorbate Carbon Dioxide: InChIKey CURLTUGMZLYLDI-UHFFFAOYSA-N
Temperature: 298 K
Tabular data in the source: 0
pressure (bar)	uptake (mmol/g)
0.270472	0.602493
2.22637	2.27387
4.4451	4.24803
6.67912	6.82162
9.29974	9.54966
12.3413	13.7809
14.7374	17.7047
17.9677	24.3352
20.12	28.7056
23.3236	34.287
26.489	38.3699
30.6598	41.8656
35.6779	43.5737
41.0596	44.537
46.1862	45.4974
51.166	45.7069
