Adsorption isotherm of Carbon Dioxide on MFI
DOI: 10.1021/La800369s
Adsorbate Carbon Dioxide: InChIKey CURLTUGMZLYLDI-UHFFFAOYSA-N
Temperature: 298 K
Tabular data in the source: 0
pressure (bar)	uptake (mmol/g)
4.99456	0.0968586
8.21287	0.281856
10.2811	0.106521
14.9126	0.473217
18.1309	0.658214
20.5756	0.841798
22.3807	0.845097
25.9755	1.38901
34.8386	2.56946
39.2095	3.02524
42.0358	3.38864
43.4568	3.30168
