Adsorption isotherm of Carbon Dioxide on Na-ZSM-5
DOI: 10.1021/La800369s
Adsorbate Carbon Dioxide: InChIKey CURLTUGMZLYLDI-UHFFFAOYSA-N
Temperature: 298 K
Tabular data in the source: 0
pressure (bar)	uptake (mmol/g)
0.930829	1.83224
6.96391	2.07027
11.8273	2.32057
16.8262	2.54687
22.7417	2.73703
29.4259	2.96293
36.0982	3.23673
42.7765	3.48658
48.6799	3.72465
