Adsorption isotherm of Carbon Dioxide on Be-IRMOF-1
DOI: 10.1021/La800369s
Adsorbate Carbon Dioxide: InChIKey CURLTUGMZLYLDI-UHFFFAOYSA-N
Temperature: 298 K
Tabular data in the source: 0
pressure (bar)	uptake (mmol/g)
0.529475	0.755409
3.4435	4.98509
7.67404	15.8223
9.82634	20.1927
14.982	27.2957
20.1697	30.6537
25.1878	32.3618
30.4381	33.1738
40.7844	33.7472
50.8602	33.7182
