Adsorption isotherm of Carbon Dioxide on MFI
DOI: 10.1021/La800369s
Adsorbate Carbon Dioxide: InChIKey CURLTUGMZLYLDI-UHFFFAOYSA-N
Temperature: 298 K
Tabular data in the source: 0
pressure (bar)	uptake (mmol/g)
1.50358	0.0597535
6.42382	0.0825017
10.292	0.165384
13.7653	0.272313
17.6005	0.486931
22.8806	1.14428
26.3727	1.69429
29.7502	2.18446
32.645	2.53103
37.5991	2.93698
44.2594	3.25869
48.9991	3.48506
