Adsorption isotherm of Carbon Dioxide on Mg-IRMOF-1
DOI: 10.1021/La800369s
Adsorbate Carbon Dioxide: InChIKey CURLTUGMZLYLDI-UHFFFAOYSA-N
Temperature: 298 K
Tabular data in the source: 0
pressure (bar)	uptake (mmol/g)
0.5	0.72967
3.875	6.86374
8.125	16.2161
11.25	22.4982
15.125	26.4315
19.875	28.8945
24.875	29.8908
30.125	30.2996
39.875	30.6821
50.125	30.1824
