Adsorption isotherm of Carbon Dioxide on IRMOF-1
DOI: 10.1021/La800369s
Adsorbate Carbon Dioxide: InChIKey CURLTUGMZLYLDI-UHFFFAOYSA-N
Temperature: 298 K
Tabular data in the source: 0
pressure (bar)	uptake (mmol/g)
0.5	0.72967
5.125	6.41685
9.625	15.3282
12.125	18.244
15.125	20.8637
20	22.5934
24.875	23.2974
30.125	23.8527
40.375	23.7927
50.25	23.1487
