Adsorption isotherm of Carbon Dioxide on Na-ZSM-5
DOI: 10.1021/La800369s
Adsorbate Carbon Dioxide: InChIKey CURLTUGMZLYLDI-UHFFFAOYSA-N
Temperature: 298 K
Tabular data in the source: 0
pressure (bar)	uptake (mmol/g)
0.815266	1.25745
7.02379	1.83075
10.1959	2.10541
13.1206	2.33222
16.0694	2.46323
20.4351	2.62982
24.5476	2.77252
28.5364	2.8913
33.0498	2.986
38.0637	3.15243
43.8525	3.33064
48.8844	3.42521
