Adsorption isotherm of Carbon Dioxide on IRMOF-1
DOI: 10.1021/La800369s
Adsorbate Carbon Dioxide: InChIKey CURLTUGMZLYLDI-UHFFFAOYSA-N
Temperature: 298 K
Tabular data in the source: 0
pressure (bar)	uptake (mmol/g)
40.561	0.267857
1689.3	0.535714
2665.34	1.16071
3153.31	2.76786
3496.17	5.08929
3720.25	9.64286
3865.18	14.5536
3996.95	18.3036
4181.5	21.7857
4379.26	24.1964
4642.99	26.5179
4985.88	28.0357
