Adsorption isotherm of Carbon Dioxide on UMCM-1
DOI: 10.1021/La800369s
Adsorbate Carbon Dioxide: InChIKey CURLTUGMZLYLDI-UHFFFAOYSA-N
Temperature: 298 K
Tabular data in the source: 0
pressure (bar)	uptake (mmol/g)
0.5	1.61618
3.125	5.43199
4.875	8.95625
7.625	16.154
10	22.1765
15	28.9265
20	32.8824
25	36.1029
30	38.2941
35	38.8676
40.125	39.7349
44.875	39.868
50	39.4118
