Adsorption isotherm of Carbon Dioxide on FMOF-1
DOI: 10.1021/La800369s
Adsorbate Carbon Dioxide: InChIKey CURLTUGMZLYLDI-UHFFFAOYSA-N
Temperature: 298 K
Tabular data in the source: 0
pressure (bar)	uptake (mmol/cm3)
0.0693798	0.207612
0.842657	0.622837
1.66204	0.986159
3.19718	1.97232
5.80507	2.75087
8.37827	3.42561
11.7243	3.94464
15.5894	4.30796
19.6736	4.56747
24.2768	4.67128
28.9608	4.82699
33.4371	4.9308
