Adsorption isotherm of Carbon Dioxide on IRMOF-1-(NH2)4
DOI: 10.1021/La800369s
Adsorbate Carbon Dioxide: InChIKey CURLTUGMZLYLDI-UHFFFAOYSA-N
Temperature: 298 K
Tabular data in the source: 0
pressure (bar)	uptake (mmol/g)
2.04765	5.26799
4.95785	9.34781
9.50378	12.5484
14.7732	14.1096
19.5132	14.9155
29.987	15.4905
40.0704	15.7611
50.2623	15.284
