Adsorption isotherm of Carbon Dioxide on SWNT
DOI: 10.1021/La800369s
Adsorbate Carbon Dioxide: InChIKey CURLTUGMZLYLDI-UHFFFAOYSA-N
Temperature: 298 K
Tabular data in the source: 0
pressure (bar)	uptake (mmol/g)
8.21287	0.281856
13.1022	0.649023
17.339	1.28367
21.5577	2.54519
26.0316	3.89673
29.3606	4.70884
33.729	5.25417
38.1	5.70994
49.5445	6.80555
