Adsorption isotherm of Carbon Dioxide on IRMOF-1
DOI: 10.1021/La800369s
Adsorbate Carbon Dioxide: InChIKey CURLTUGMZLYLDI-UHFFFAOYSA-N
Temperature: 298 K
Tabular data in the source: 0
pressure (bar)	uptake (mmol/g)
283	350
307	341
337	318
356	290
369	264
375	243
382	212
391	177
405	143
419	113
431	95
441	81
