Adsorption isotherm of Carbon Dioxide on IRMOF-1
DOI: 10.1021/La800369s
Adsorbate Carbon Dioxide: InChIKey CURLTUGMZLYLDI-UHFFFAOYSA-N
Temperature: 298 K
Tabular data in the source: 0
pressure (bar)	uptake (mmol/g)
198	361
278	353
314	336
341	309
357	252
366	207
377	165
389	130
405	97
423	75
445	62
