Adsorption isotherm of Carbon Dioxide on MFI
DOI: 10.1021/La800369s
Adsorbate Carbon Dioxide: InChIKey CURLTUGMZLYLDI-UHFFFAOYSA-N
Temperature: 298 K
Tabular data in the source: 0
pressure (bar)	uptake (mmol/g)
5.00679	0.046922
10.307	0.105503
14.0425	0.200393
15.1973	0.248012
18.2726	0.390964
21.1944	0.629756
23.836	0.952444
24.9518	1.15575
26.2212	1.26322
34.7671	2.33891
39.3293	2.75693
43.0229	3.01948
