Adsorption isotherm of Carbon Dioxide on IRMOF-14
DOI: 10.1021/La800369s
Adsorbate Carbon Dioxide: InChIKey CURLTUGMZLYLDI-UHFFFAOYSA-N
Temperature: 298 K
Tabular data in the source: 0
pressure (bar)	uptake (mmol/g)
1.125	1.61434
3	4.10882
5.25	7.63162
9.875	16.1474
12.5	21.1397
15.25	26.4257
20.125	33.7643
25.125	38.1614
30.125	39.3232
35.125	40.1908
40.375	41.0577
44.75	41.339
50	40.5882
