Adsorption isotherm of Carbon Dioxide on COF-102
DOI: 10.1021/La800369s
Adsorbate Carbon Dioxide: InChIKey CURLTUGMZLYLDI-UHFFFAOYSA-N
Temperature: 298 K
Tabular data in the source: 0
pressure (bar)	uptake (mmol/g)
0.129426	1.31273
0.888602	3.64185
2.6745	13.6992
4.96209	23.8981
9.87249	31.3004
14.8917	33.4462
19.7816	34.2793
24.9211	34.8182
29.9349	35.2122
34.9468	35.0224
45.0951	34.3495
49.9808	33.8688
