Adsorption isotherm of Carbon Dioxide on FMOF-1
DOI: 10.1021/La800369s
Adsorbate Carbon Dioxide: InChIKey CURLTUGMZLYLDI-UHFFFAOYSA-N
Temperature: 298 K
Tabular data in the source: 0
pressure (bar)	uptake (mmol/g)
0.75	0.291912
4.75	0.868382
9.875	1.14743
15	1.72059
20	2.14706
24.875	2.13272
30.125	2.26434
34.875	2.69154
40.25	2.67574
45	2.66176
50	2.79412
