Adsorption isotherm of Carbon Dioxide on MFI
DOI: 10.1021/La800369s
Adsorbate Carbon Dioxide: InChIKey CURLTUGMZLYLDI-UHFFFAOYSA-N
Temperature: 298 K
Tabular data in the source: 0
pressure (bar)	uptake (mmol/g)
8.21287	0.281856
12.9837	0.290576
17.3598	0.567247
22.3729	1.11376
26.6098	1.7484
30.5887	2.38258
36.6307	3.02053
42.0358	3.38864
49.5014	3.85007
