Adsorption isotherm of Carbon Dioxide on IRMOF-13
DOI: 10.1021/La800369s
Adsorbate Carbon Dioxide: InChIKey CURLTUGMZLYLDI-UHFFFAOYSA-N
Temperature: 298 K
Tabular data in the source: 0
pressure (bar)	uptake (mmol/g)
0.125	1.47022
1	4.40882
3.125	9.69669
4.875	12.7798
7.5	14.3897
11.125	15.7026
14.75	16.2801
20.125	16.7055
25.25	16.9846
30.125	17.2643
35.375	17.2489
39.875	16.9415
50.125	16.4702
