Adsorption isotherm of Nitrogen on TpBD(NO2)2
DOI: 10.1021/acs.chemmater.5b04388
Article source: Figure S1
Adsorbate Nitrogen: InChIKey IJGRMHOSHXDMSA-UHFFFAOYSA-N
Kind: experiment
Temperature: 77 K
Tabular data in the source: 0
pressure (bar)	uptake (cm3(STP)/g)
0	67.3077
0.004061	87.9121
0.008122	102.335
0.028428	117.445
0.048733	130.495
0.0731	146.291
0.089345	158.654
0.111681	163.462
0.127925	166.896
0.152292	170.33
0.172598	173.077
0.192903	173.077
0.215239	175.824
0.235545	176.511
0.25179	178.571
0.276156	180.632
0.292401	181.319
0.306615	182.005
0.328951	184.066
0.357379	185.44
0.379715	186.813
0.406112	187.5
0.430479	190.247
0.456876	192.308
0.483274	192.995
0.50764	195.055
0.529976	196.429
0.558404	195.742
0.584802	197.802
0.607138	199.176
0.633535	200.549
0.657902	201.236
0.684299	202.61
0.708666	203.297
0.733033	206.044
0.75943	206.044
0.781766	207.418
0.812224	208.791
0.834561	210.852
0.860958	211.538
0.885325	213.599
0.909691	214.286
0.936089	217.033
0.962486	221.154
0.990914	236.264
0.960455	225.275
0.934058	220.467
0.909691	219.78
0.885325	217.72
0.858927	217.033
0.83253	214.973
0.810194	214.286
0.783797	213.599
0.757399	212.225
0.733033	212.225
0.708666	212.225
0.682269	211.538
0.655871	211.538
0.631505	210.852
0.605107	210.165
0.582771	208.791
0.556374	208.104
0.532007	207.418
0.503579	206.044
0.479212	205.357
0.454846	203.984
0.428448	203.297
0.404082	201.923
0.379715	202.61
0.351287	200.549
0.32692	199.176
0.300523	199.863
0.28834	197.802
0.274126	197.802
0.249759	196.429
0.227423	195.055
0.203056	193.681
0.176659	192.308
0.150262	190.934
0.125895	188.187
0.101528	184.753
0.048733	155.22
0.008122	120.879
0.006092	111.951
