Adsorption isotherm of Nitrogen on TpBD(NH2)2
DOI: 10.1021/acs.chemmater.5b04388
Article source: Figure S1
Adsorbate Nitrogen: InChIKey IJGRMHOSHXDMSA-UHFFFAOYSA-N
Kind: experiment
Temperature: 77 K
Tabular data in the source: 0
pressure (bar)	uptake (cm3(STP)/g)
0.002031	48.7637
0.002031	85.8516
0.010153	107.143
0.030458	128.434
0.050764	142.857
0.0731	156.593
0.089345	164.835
0.111681	168.269
0.134017	171.703
0.154323	174.451
0.172598	177.885
0.194934	179.945
0.211178	181.319
0.235545	183.379
0.25179	184.753
0.274126	186.126
0.29037	188.187
0.306615	188.874
0.330981	190.247
0.357379	192.995
0.377684	194.368
0.406112	195.055
0.430479	197.802
0.458907	198.489
0.485304	201.236
0.511701	201.923
0.536068	203.297
0.558404	203.984
0.584802	206.044
0.609168	208.791
0.633535	208.791
0.657902	209.478
0.68633	212.225
0.710696	213.599
0.735063	214.286
0.763491	217.033
0.785827	218.407
0.808163	220.467
0.834561	222.527
0.860958	225.275
0.889386	228.709
0.913753	231.456
0.938119	234.89
0.966547	241.758
0.004061	120.879
0.008122	131.868
0.042642	170.33
0.097467	195.055
0.125895	197.802
0.150262	200.549
0.174628	202.61
0.20001	203.984
0.223362	205.357
0.247728	206.044
0.272095	208.791
0.284279	208.104
0.300523	209.478
0.32692	210.852
0.351287	212.225
0.375654	212.912
0.404082	213.599
0.428448	214.286
0.452815	214.286
0.479212	217.033
0.50561	220.467
0.527946	222.527
0.554343	222.527
0.576679	223.901
0.605107	223.214
0.630489	225.275
0.653841	225.962
0.680238	227.335
0.706635	228.709
0.735063	229.396
0.755369	230.082
0.783797	231.456
0.808163	232.143
0.836591	232.143
0.858927	233.516
0.885325	234.203
0.909691	236.951
0.934058	239.011
0.960455	244.505
0.994975	262.363
