Adsorption isotherm of Nitrogen on TpBD(NHCOCH3)2
DOI: 10.1021/acs.chemmater.5b04388
Article source: Figure S1
Adsorbate Nitrogen: InChIKey IJGRMHOSHXDMSA-UHFFFAOYSA-N
Kind: experiment
Temperature: 77 K
Tabular data in the source: 0
pressure (bar)	uptake (cm3(STP)/g)
0.004061	28.1593
0.006092	53.5714
0.008122	64.5604
0.018275	72.1154
0.032489	80.3571
0.048733	90.6593
0.07107	98.2143
0.089345	101.648
0.111681	103.709
0.129956	107.143
0.152292	109.89
0.172598	111.264
0.192903	112.637
0.213209	113.324
0.235545	115.385
0.255851	117.445
0.276156	118.132
0.292401	119.505
0.308645	120.879
0.314737	120.879
0.322859	122.94
0.330981	125
0.357379	125
0.379715	126.374
0.406112	127.06
0.43251	129.121
0.456876	130.495
0.479212	133.242
0.50764	133.929
0.532007	134.615
0.558404	137.363
0.582771	139.423
0.609168	140.11
0.633535	141.484
0.657902	143.544
0.684299	144.918
0.708666	145.604
0.735063	146.978
0.757399	148.352
0.783797	151.099
0.812224	153.159
0.836591	153.846
0.860958	155.907
0.889386	157.28
0.911722	159.341
0.936089	164.148
0.962486	168.956
0.994975	179.945
0.960455	171.016
0.934058	167.582
0.909691	164.148
0.885325	162.775
0.858927	162.088
0.83253	160.714
0.808163	159.341
0.783797	158.654
0.75943	159.341
0.731002	157.28
0.706635	156.593
0.682269	155.22
0.657902	153.846
0.629474	154.533
0.607138	153.846
0.58074	152.473
0.556374	151.099
0.527946	149.725
0.501549	149.725
0.477182	148.352
0.454846	146.291
0.430479	146.291
0.402051	143.544
0.375654	143.544
0.351287	142.857
0.32692	141.14
0.316768	140.11
0.308645	140.11
0.302554	139.423
0.286309	138.736
0.272095	138.049
0.25179	137.363
0.227423	135.302
0.198995	133.242
0.174628	132.555
0.1462	129.808
0.123864	129.121
0.101528	126.374
0.081222	124.313
0.056856	120.192
0.050764	116.071
0.032489	109.203
0.020306	97.5275
0.012183	85.1648
0.004061	76.9231
