Adsorption isotherm of Hydrogen on Carbon
DOI: 10.1002/adfm.200500830
Adsorbate Hydrogen: InChIKey UFHFLCQGNIYNRP-UHFFFAOYSA-N
Temperature: 77 K
Tabular data in the source: 0
pressure (bar)	uptake (wt%)
0.0121202	0.157462
0.0333306	0.35437
0.0666612	0.60387
0.0939317	0.748422
0.154533	0.945846
0.199984	1.09064
0.248464	1.19614
0.303005	1.31483
0.354516	1.43349
0.409057	1.49974
0.454508	1.60521
0.493899	1.65816
0.754483	1.94997
0.802964	2.00304
0.854475	2.02993
0.909016	2.08308
0.957497	2.10993
1.00295	2.14985
