Adsorption isotherm of Hydrogen on Carbon
DOI: 10.1002/adfm.200500830
Adsorbate Hydrogen: InChIKey UFHFLCQGNIYNRP-UHFFFAOYSA-N
Temperature: 77 K
Tabular data in the source: 0
pressure (bar)	uptake (wt%)
0.00909016	0.274254
0.0151503	0.470149
0.0212104	0.666045
0.0303005	0.822761
0.0696912	1.13619
0.103022	1.27985
0.154533	1.47575
0.203014	1.63246
0.251494	1.76306
0.306035	1.86754
0.348456	1.9459
0.409057	2.02425
0.457538	2.08955
0.509049	2.15485
0.55753	2.20709
0.609041	2.24627
0.663582	2.31157
0.712063	2.35075
0.763574	2.37687
0.818115	2.41604
0.863565	2.45522
0.905986	2.50746
0.960527	2.54664
1.00598	2.5597
