Adsorption isotherm of Hydrogen on Carbon
DOI: 10.1002/adfm.200500830
Adsorbate Hydrogen: InChIKey UFHFLCQGNIYNRP-UHFFFAOYSA-N
Temperature: 77 K
Tabular data in the source: 0
pressure (bar)	uptake (wt%)
0.0151503	0.757463
0.0303005	0.88806
0.0696912	1.26679
0.0999918	1.46269
0.154533	1.6847
0.203014	1.86754
0.251494	2.02425
0.306035	2.12873
0.354516	2.23321
0.406027	2.33769
0.506019	2.4944
0.56056	2.57276
0.609041	2.63806
0.657522	2.70336
0.712063	2.7556
0.760544	2.80784
0.809024	2.84701
0.912046	2.95149
0.960527	2.99067
1.00295	3.02985
