Adsorption isotherm of Nitrogen on TMHzcB-DMeOTA1/DHTA1-COF
DOI: 10.1002/anie.202107179
Article source: Figure S11B
Adsorbate Nitrogen: InChIKey IJGRMHOSHXDMSA-UHFFFAOYSA-N
Kind: experiment
Temperature: 77 K
Tabular data in the source: 0
pressure (bar)	uptake (cm3(STP)/g)
0.000597	9.11768
0.000573	16.6841
0.000549	23.9065
0.004013	31.8168
0.007486	36.6318
0.012701	42.4785
0.017922	46.6056
0.030109	54.5159
0.044912	62.5982
0.072795	72.4001
0.092838	78.5907
0.115934	84.7814
0.139029	91.6599
0.180862	103.353
0.219217	111.952
0.26105	123.645
0.299828	136.198
0.374382	145.312
0.426712	148.408
0.47599	150.987
0.506956	151.503
0.557983	152.879
0.608135	154.942
0.658723	157.006
0.711928	159.069
0.762517	161.133
0.811357	164.228
0.860632	167.668
0.91426	173.858
0.953481	184.176
0.976987	198.621
0.993514	213.066
1.00044	229.574
1.00819	261.215
0.999471	259.152
0.977747	233.186
0.939468	201.372
0.895904	185.208
0.844464	176.954
0.792134	173.858
0.742417	172.139
0.69008	171.451
0.639489	170.075
0.588899	168.699
0.539176	168.699
0.490329	167.668
0.437993	166.636
0.387404	164.916
0.334202	161.821
0.286258	151.159
0.246169	139.466
0.204328	130.18
0.165106	120.206
0.122395	109.888
0.093639	100.602
0.071854	93.3796
0.057039	88.9085
0.043096	84.4375
0.02655	75.8393
0.018713	71.7122
0.009135	66.2094
0.0013	61.3944
0.001317	55.8916
0.001332	51.4206
