Adsorption isotherm of Nitrogen on TMHzcBDMeOTA2/DHTA1-COF
DOI: 10.1002/anie.202107179
Article source: Figure S11A
Adsorbate Nitrogen: InChIKey IJGRMHOSHXDMSA-UHFFFAOYSA-N
Kind: experiment
Temperature: 77 K
Tabular data in the source: 0
pressure (bar)	uptake (cm3(STP)/g)
-0.001137	8.38737
0.000634	16.4384
-0.001811	21.8045
-2.1e-05	26.1285
0.003584	30.0058
0.007192	33.4358
0.013217	36.7175
0.019243	39.8501
0.02768	44.1762
0.043363	49.399
0.074136	57.6083
0.089223	61.191
0.114575	66.1187
0.159243	74.7796
0.199082	82.5445
0.242544	90.6087
0.281158	101.504
0.320376	112.548
0.373516	118.678
0.424867	120.334
0.47501	121.84
0.507029	122.894
0.558985	124.401
0.607921	125.609
0.659878	126.968
0.708211	128.027
0.759562	129.683
0.812121	131.339
0.862862	134.188
0.909968	138.824
0.952827	146.59
0.973924	156.585
1.00117	199.757
1.00268	199.661
0.974938	179.902
0.935909	155.846
0.892458	145.527
0.842016	141.218
0.79156	139.27
0.740232	137.965
0.689769	137.52
0.638436	137.075
0.58971	137.274
0.536637	136.828
0.483562	136.596
0.437451	135.938
0.384381	134.847
0.335668	132.471
0.286999	121.721
0.244419	111.189
0.204439	102.803
0.165323	95.492
0.122728	87.7501
0.09057	81.085
0.069715	75.7114
0.05668	72.7018
0.042781	68.4038
0.024543	61.743
0.017599	58.5207
0.009794	53.5806
0.004587	51.0028
0.004604	47.7826
0.002009	44.7763
