Adsorption isotherm of Nitrogen on TMHzcB-TA2/DMeOTA1/DHTA2-COF
DOI: 10.1002/anie.202107179
Article source: Figure S11G
Adsorbate Nitrogen: InChIKey IJGRMHOSHXDMSA-UHFFFAOYSA-N
Kind: experiment
Temperature: 77 K
Tabular data in the source: 0
pressure (bar)	uptake (cm3(STP)/g)
0.002922	4.80098
0.008209	7.19202
0.015282	9.71647
0.025959	11.5787
0.0456	13.1791
0.075042	16.1104
0.092006	17.4443
0.117014	19.1794
0.161671	22.2495
0.202757	25.0527
0.241148	28.1202
0.283101	31.7201
0.321444	36.1149
0.37316	42.1075
0.40624	43.4477
0.477848	44.0065
0.525286	44.4233
0.554822	44.7003
0.607188	45.0525
0.659534	45.9357
0.709639	46.8843
0.758849	47.8326
0.808945	49.0467
0.861713	50.66
0.910862	53.3336
0.950991	57.8618
0.974952	63.8436
0.989917	71.0164
0.998567	79.5139
1.00326	98.4947
0.997218	92.2545
0.972745	75.5221
0.934752	61.3062
0.891927	57.0424
0.840055	55.4295
0.789044	54.7459
0.739811	54.4612
0.689672	54.4416
0.636843	54.5537
0.586695	54.7995
0.537461	54.5148
0.485532	54.4945
0.435389	54.6076
0.384364	54.3222
0.334306	52.0464
0.284404	45.3908
0.244237	41.9244
0.204051	38.9888
0.163861	36.186
0.120998	32.9839
0.089747	30.5827
0.06923	28.4512
0.03803	24.5901
0.028258	22.4627
0.017665	18.2115
