Adsorption isotherm of Nitrogen on TMHzcB-DCTA-COF
DOI: 10.1002/anie.202107179
Article source: Figure S4G
Adsorbate Nitrogen: InChIKey IJGRMHOSHXDMSA-UHFFFAOYSA-N
Kind: experiment
Temperature: 77 K
Tabular data in the source: 0
pressure (bar)	uptake (cm3(STP)/g)
0.001037	10.7914
0.002037	26.9125
0.002059	39.1953
0.002573	54.5488
0.002116	70.67
0.002141	84.4881
0.004113	100.609
0.006085	117.498
0.009994	131.316
0.020699	145.134
0.033347	159.72
0.046964	172.771
0.078079	198.104
0.087801	205.013
0.103355	216.144
0.123763	226.124
0.146599	236.871
0.162638	247.235
0.184014	256.447
0.203452	267.195
0.22241	281.013
0.247188	291.76
0.265658	304.043
0.284126	315.558
0.306002	332.063
0.352303	433.012
0.423244	468.325
0.477147	477.921
0.529095	479.84
0.559199	482.911
0.611638	488.285
0.660195	494.426
0.710201	496.345
0.764095	501.335
0.81556	504.406
0.864612	515.921
0.916573	525.133
0.951555	541.254
0.951555	541.254
0.978778	561.982
0.992416	586.931
1.00024	620.325
1.00809	661.012
0.997044	640.54
0.971855	581.685
0.943486	553.537
0.896525	534.985
0.847149	523.47
0.794547	517.712
0.745183	512.595
0.691772	506.837
0.643223	504.918
0.590622	499.8
0.540452	496.601
0.491893	488.925
0.44091	483.807
0.389917	472.931
0.342913	430.709
0.307151	341.147
0.267459	315.558
0.230202	294.447
0.188894	270.137
0.150829	249.666
0.111957	229.834
0.087663	218.319
0.074693	204.885
0.057687	196.569
0.04472	185.053
0.03255	166.501
0.022821	155.626
