Adsorption isotherm of Nitrogen on TMHzcB-DMeTA-COF
DOI: 10.1002/anie.202107179
Article source: Figure S4I
Adsorbate Nitrogen: InChIKey IJGRMHOSHXDMSA-UHFFFAOYSA-N
Kind: experiment
Temperature: 77 K
Tabular data in the source: 0
pressure (bar)	uptake (cm3(STP)/g)
0.002291	67.0197
0.008013	74.8996
0.007089	86.1567
0.007118	98.5395
0.012842	106.982
0.021412	113.737
0.027135	122.179
0.034758	130.059
0.043329	136.814
0.074737	154.262
0.083312	162.705
0.102343	171.71
0.118516	177.339
0.128035	183.53
0.142309	190.285
0.161344	200.416
0.185133	211.673
0.204162	219.553
0.223203	232.499
0.242236	242.067
0.265078	254.45
0.286015	265.144
0.306013	280.904
0.373649	343.944
0.410734	350.135
0.478242	359.141
0.509136	360.266
0.559998	363.925
0.608961	368.709
0.659822	372.086
0.71496	375.745
0.761549	381.092
0.814786	384.469
0.866128	390.661
0.913676	399.666
0.955528	412.049
0.981221	424.432
0.99267	442.725
1.00222	459.892
1.01083	486.627
1.00059	472.102
0.967826	431.843
0.936767	416.99
0.89912	407.609
0.845631	398.228
0.795457	395.101
0.74462	390.41
0.692464	386.502
0.642293	384.547
0.592116	380.248
0.543266	378.293
0.493751	374.776
0.442586	371.258
0.388113	364.222
0.340538	343.506
0.297516	294.256
0.271728	275.104
0.231418	256.342
0.189123	235.235
0.148813	216.082
0.109166	198.493
0.088678	187.549
0.073473	178.168
0.05827	169.178
0.043726	159.797
0.025874	146.898
0.015946	135.563
0.008664	126.964
0.002693	114.065
