Adsorption isotherm of Nitrogen on TMHzcB-DMeOTA1/DHTA2-COF
DOI: 10.1002/anie.202107179
Article source: Figure S11C
Adsorbate Nitrogen: InChIKey IJGRMHOSHXDMSA-UHFFFAOYSA-N
Kind: experiment
Temperature: 77 K
Tabular data in the source: 0
pressure (bar)	uptake (cm3(STP)/g)
-4.2e-05	7.15971
0.004938	11.0927
0.017387	14.0446
0.027347	16.013
0.044776	17.4918
0.075036	20.1615
0.092327	21.0191
0.116534	22.3904
0.16149	24.4495
0.202989	26.849
0.240164	28.9061
0.281663	31.135
0.322297	33.705
0.375034	34.9128
0.425178	35.4373
0.457166	35.9573
0.506445	36.4816
0.576474	36.6699
0.606733	37.1894
0.659471	38.3972
0.710479	39.2633
0.760623	40.2998
0.812496	41.8487
0.86091	44.25
0.911919	48.8703
0.953417	56.2186
0.97676	66.2928
0.992322	79.7779
0.999238	93.0902
1.01048	116.643
1.0001	114.251
0.97676	92.402
0.940449	64.7478
0.894628	54.4973
0.845348	50.56
0.793476	48.3286
0.742467	47.8038
0.692323	47.6205
0.64045	47.6075
0.590307	47.5949
0.538434	47.5818
0.48829	47.9105
0.436417	48.2388
0.387138	48.397
0.3344	48.0425
0.285121	45.9823
0.242758	44.0945
0.202989	42.378
0.16149	40.8318
0.121721	38.774
0.089733	37.0594
0.068984	35.5184
0.039589	32.9513
0.026621	30.9002
0.013653	28.8492
0.003278	27.1401
