Adsorption isotherm of Nitrogen on TMHzcB-DHTA-COF
DOI: 10.1002/anie.202107179
Article source: Figure S4M
Adsorbate Nitrogen: InChIKey IJGRMHOSHXDMSA-UHFFFAOYSA-N
Kind: experiment
Temperature: 77 K
Tabular data in the source: 0
pressure (bar)	uptake (cm3(STP)/g)
0.001349	5.79316
0.002295	11.1952
0.002295	17.9025
0.002295	24.2371
0.002295	29.8265
0.003242	36.1601
0.009867	42.1149
0.018386	48.4402
0.029745	53.2718
0.042996	58.4741
0.075652	66.636
0.089377	69.6019
0.102629	72.5684
0.121559	75.5286
0.14049	79.4204
0.164627	82.5612
0.182138	87.0135
0.201069	89.6011
0.223786	93.675
0.24461	98.4963
0.26638	101.453
0.287204	104.784
0.307082	110.538
0.349676	133.408
0.418774	137.058
0.477459	138.484
0.506802	140.315
0.556969	142.123
0.609029	142.439
0.659195	144.992
0.708889	145.31
0.760475	148.234
0.810642	150.042
0.865068	153.709
0.912869	158.501
0.952624	165.537
0.979127	175.382
0.992378	186.36
1.00279	198.273
1.00563	215.038
0.983859	193.077
0.940318	171.885
0.895831	162.991
0.846611	158.201
0.793604	153.415
0.742491	152.726
0.691378	151.291
0.642158	150.227
0.588205	148.796
0.538038	148.851
0.488818	147.415
0.435811	144.865
0.385645	142.311
0.337371	137.148
0.29383	113.72
0.267327	109.278
0.225679	102.43
0.185924	94.8345
0.145223	87.7993
0.108308	82.2504
0.089377	78.1723
0.069026	75.2137
0.055302	71.8751
0.041103	68.5371
0.024066	61.8485
0.0146	55.1516
