Adsorption isotherm of Nitrogen on TMHzcBTA3/DMeOTA1/DHTA2-COF
DOI: 10.1002/anie.202107179
Article source: Figure S11E
Adsorbate Nitrogen: InChIKey IJGRMHOSHXDMSA-UHFFFAOYSA-N
Kind: experiment
Temperature: 77 K
Tabular data in the source: 0
pressure (bar)	uptake (cm3(STP)/g)
-0.001246	7.69002
-0.001333	12.8209
0.005409	15.4967
0.005937	17.7274
0.012693	19.5109
0.017184	21.5179
0.026209	22.9664
0.035799	24.4149
0.043699	25.4174
0.075314	28.7584
0.084344	29.8724
0.091674	31.2096
0.114272	32.6559
0.161159	35.8829
0.200696	38.9995
0.23967	41.8931
0.280894	45.5672
0.322138	48.0142
0.373569	50.125
0.422182	51.5671
0.454408	52.231
0.507558	53.0031
0.574842	53.9959
0.607352	54.604
0.658511	55.9898
0.709387	57.4315
0.759688	59.4309
0.807146	62.3232
0.859691	65.4376
0.910499	70.8947
0.951629	80.1458
0.973491	91.6308
0.987928	107.467
0.996129	124.197
1.00301	152.08
0.979283	120.808
0.941383	89.7377
0.895965	77.4255
0.844488	73.2397
0.792009	71.6618
0.74106	70.3841
0.691649	70.5096
0.63969	70.5362
0.588751	70.6625
0.53883	70.688
0.487891	70.9146
0.435423	71.0416
0.385503	71.1674
0.33558	70.9923
0.284622	68.2103
0.244364	65.9242
0.204613	63.3371
0.162318	61.052
0.123074	57.9631
0.089435	55.2725
0.069553	52.8758
0.039473	48.9799
0.029269	46.6785
0.017025	43.8767
0.011919	42.0741
0.00478	40.8743
0.001712	39.0707
0.001188	36.8646
