Adsorption isotherm of Nitrogen on TMHzcB-TPB-COF
DOI: 10.1002/anie.202107179
Article source: Figure S4A
Adsorbate Nitrogen: InChIKey IJGRMHOSHXDMSA-UHFFFAOYSA-N
Kind: experiment
Temperature: 77 K
Tabular data in the source: 0
pressure (bar)	uptake (cm3(STP)/g)
0.003185	8.09293
0.004154	16.5028
0.002215	26.4366
0.003185	35.2287
0.002215	45.9286
0.001245	52.8064
0.003185	62.3646
0.003185	72.6838
0.003185	82.2387
0.004154	89.1198
0.006093	96.767
0.009002	106.327
0.013849	116.654
0.021606	122.4
0.031301	130.06
0.044874	134.67
0.076869	139.31
0.103046	141.265
0.123406	143.593
0.141827	145.153
0.166066	146.34
0.187395	147.523
0.207755	148.322
0.224237	150.643
0.243628	151.822
0.269805	152.631
0.289196	152.663
0.307617	154.223
0.354154	155.831
0.409417	156.306
0.457894	158.681
0.508309	161.06
0.559695	162.293
0.607201	163.902
0.659556	165.137
0.709487	168.279
0.764265	171.047
0.809833	173.799
0.865096	179.817
0.916481	185.063
0.954778	196.212
0.979501	209.63
0.992105	226.468
1.0018	243.683
1.00665	269.298
0.994044	258.958
0.966897	221.075
0.936842	203.443
0.89806	193.058
0.841828	186.084
0.793351	182.18
0.744875	178.658
0.691551	177.804
0.64065	174.469
0.58975	173.428
0.537395	172.575
0.48698	169.432
0.438503	166.675
0.387118	165.441
0.338642	163.64
0.289196	162.792
0.246536	161.382
0.205816	159.784
0.165096	157.04
0.121467	155.438
0.093836	153.289
0.069597	151.91
0.038088	146.697
0.029362	143.243
0.017727	137.299
0.009971	129.642
0.004639	121.416
0.008032	112.44
