Adsorption isotherm of Nitrogen on TMHzcB-TA2/DMeOTA1/DHTA2-COF
DOI: 10.1002/anie.202107179
Article source: Figure S11F
Adsorbate Nitrogen: InChIKey IJGRMHOSHXDMSA-UHFFFAOYSA-N
Kind: experiment
Temperature: 77 K
Tabular data in the source: 0
pressure (bar)	uptake (cm3(STP)/g)
-0.002765	7.78259
0.001156	14.4686
0.004092	18.7668
0.003153	22.8261
0.008021	26.6467
0.013859	30.7061
0.018719	33.3327
0.027942	36.7951
0.044907	40.0188
0.076905	46.7048
0.094352	49.5702
0.116647	53.3908
0.163173	61.032
0.201953	68.4343
0.240725	74.8816
0.284345	82.284
0.324112	92.4324
0.373592	106.879
0.410391	108.192
0.477208	110.222
0.510129	110.7
0.559506	110.938
0.611796	112.371
0.660212	113.565
0.709589	113.804
0.759946	115.595
0.811269	117.147
0.860658	119.057
0.911021	121.684
0.953661	127.415
0.97695	134.817
0.991544	144.846
0.999365	155.353
1.00531	173.978
0.993155	166.814
0.963444	141.503
0.937237	132.19
0.893637	127.653
0.843276	125.266
0.792924	124.072
0.741612	124.072
0.691267	123.833
0.641892	123.833
0.59058	123.833
0.539271	124.31
0.488923	123.594
0.438581	123.833
0.38823	122.878
0.336874	116.669
0.289326	101.626
0.2457	93.5069
0.20499	86.8209
0.165244	79.6573
0.124541	73.9264
0.092552	68.4343
0.070254	64.1362
0.041161	57.4502
0.032425	54.3459
0.017875	50.5254
0.013502	48.2569
0.011072	46.9436
0.007188	45.2721
0.003307	44.0781
0.002323	41.9291
0.001816	38.8248
0.001797	36.1982
