Adsorption isotherm of Nitrogen on TMHzcB-TFPB-COF
DOI: 10.1002/anie.202107179
Article source: Figure S4C
Adsorbate Nitrogen: InChIKey IJGRMHOSHXDMSA-UHFFFAOYSA-N
Kind: experiment
Temperature: 77 K
Tabular data in the source: 0
pressure (bar)	uptake (cm3(STP)/g)
0.000413	6.81069
0.001198	16.2448
0.001177	26.2347
0.00116	34.5596
0.001944	44.5486
0.001122	52.8743
0.001101	63.4192
0.001083	71.7441
0.000256	82.8447
0.000239	91.1696
-0.000583	99.4953
0.001005	110.039
0.001782	123.358
0.001765	131.683
0.002552	140.007
0.002531	149.997
0.005721	163.868
0.00891	177.74
0.017736	189.386
0.025763	197.703
0.03459	208.794
0.048233	224.876
0.071518	247.052
0.083565	257.03
0.097187	283.102
0.118838	317.49
0.146177	324.123
0.166284	326.878
0.18558	332.409
0.204884	334.61
0.227004	336.254
0.24671	337.899
0.270037	339.541
0.289344	340.077
0.30945	343.388
0.35691	345.561
0.408395	347.175
0.456657	350.735
0.507331	354.848
0.559619	357.017
0.607081	358.635
0.65937	360.249
0.712461	362.972
0.759113	367.088
0.812202	370.644
0.862066	377.81
0.911123	386.086
0.949703	403.253
0.977013	424.316
0.989837	447.613
1.00264	478.68
1.00577	521.412
0.984939	482.028
0.967289	458.18
0.93997	441.557
0.896552	429.945
0.845885	422.225
0.792396	417.283
0.743735	411.78
0.690643	409.612
0.641572	407.996
0.589292	402.497
0.541027	400.324
0.496844	368.733
0.439747	358.244
0.385849	356.632
0.335977	353.351
0.28691	350.07
0.244276	347.891
0.204866	342.935
0.165456	337.979
0.122835	329.696
0.101181	296.973
0.079917	270.354
0.063459	253.72
0.04098	230.988
0.029747	216.569
0.018512	203.26
