Adsorption isotherm of Nitrogen on TMHzcBDMeOTA-COF
DOI: 10.1002/anie.202107179
Article source: Figure S4K
Adsorbate Nitrogen: InChIKey IJGRMHOSHXDMSA-UHFFFAOYSA-N
Kind: experiment
Temperature: 77 K
Tabular data in the source: 0
pressure (bar)	uptake (cm3(STP)/g)
0.001061	7.29854
0.000251	16.1862
0.000229	25.5409
0.000997	34.4272
0.002552	43.7806
0.002534	51.7321
0.002515	59.6836
0.005644	70.9067
0.005623	79.7936
0.010338	87.2735
0.015052	95.2211
0.02135	100.361
0.032375	107.836
0.044975	116.712
0.078062	134.459
0.087518	138.66
0.100914	144.262
0.122192	152.196
0.14268	161.066
0.159227	168.536
0.180503	177.406
0.204149	184.87
0.22069	194.678
0.241964	204.483
0.263232	217.095
0.282924	228.772
0.308148	236.235
0.35822	242.741
0.425646	249.234
0.456407	250.144
0.506885	251.739
0.558143	257.076
0.609412	257.969
0.660676	261.201
0.708385	266.306
0.763195	270.938
0.812876	276.042
0.862555	282.549
0.909855	293.736
0.949253	311.477
0.97602	333.439
0.989358	363.83
0.999944	390.015
1.00342	421.818
1.00801	481.684
1.00332	463.914
0.981407	390.498
0.942913	324.111
0.896424	303.102
0.842812	292.154
0.793921	286.348
0.741871	282.182
0.692975	278.48
0.638552	277.122
0.587291	272.955
0.537602	271.125
0.487126	268.36
0.435865	264.193
0.386175	262.831
0.336496	256.791
0.286035	247.478
0.250593	225.057
0.204889	205.683
0.165489	189.111
0.124509	173.242
0.095356	159.702
0.073292	150.366
0.05832	143.83
0.043354	134.955
0.028394	123.742
0.021309	117.667
0.011074	109.724
0.007947	97.5656
