Adsorption isotherm of Nitrogen on TMHzcB-TA2/DHTA1-COF
DOI: 10.1002/anie.202107179
Article source: Figure S11D
Adsorbate Nitrogen: InChIKey IJGRMHOSHXDMSA-UHFFFAOYSA-N
Kind: experiment
Temperature: 77 K
Tabular data in the source: 0
pressure (bar)	uptake (cm3(STP)/g)
0.00155	7.29266
0.000297	12.4862
0.005308	15.4539
0.01032	18.4216
0.014079	21.3893
0.029114	25.3462
0.042896	28.8086
0.07589	32.8067
0.095728	35.0737
0.117655	37.959
0.161507	42.6991
0.201183	48.2636
0.247124	53.828
0.280536	58.9803
0.323344	66.8118
0.373461	79.3833
0.411049	81.2381
0.47474	82.8869
0.509195	84.1234
0.557224	84.9478
0.60943	86.1843
0.658503	87.4209
0.711752	87.833
0.758737	90.1
0.813031	90.9244
0.863148	92.5731
0.911177	95.8706
0.953986	100.817
0.975912	107.824
0.989485	115.861
0.999927	125.136
1.00932	142.035
0.999839	142.954
0.976637	124.706
0.938208	106.244
0.894704	99.8035
0.841773	97.5136
0.791743	96.0824
0.741713	95.3668
0.690957	94.7943
0.640927	94.7943
0.589447	94.5081
0.537966	93.9356
0.487936	93.5063
0.436456	93.0769
0.3857	92.0751
0.33712	86.0641
0.287815	73.899
0.244311	67.888
0.205882	62.4495
0.163827	57.2972
0.122498	52.8605
0.09132	49.2826
0.069568	46.4202
0.039839	41.8404
0.029688	39.4074
0.018812	35.6863
0.010836	33.6826
0.004311	32.5377
0.002861	30.6771
0.002135	27.8147
0.002135	25.9542
