Adsorption isotherm of Nitrogen on TMHzcB-TA-COF
DOI: 10.1002/anie.202107179
Article source: Figure S4E
Adsorbate Nitrogen: InChIKey IJGRMHOSHXDMSA-UHFFFAOYSA-N
Kind: experiment
Temperature: 77 K
Tabular data in the source: 0
pressure (bar)	uptake (cm3(STP)/g)
0.00075	7.62792
0.000718	16.3934
0.002628	22.8722
0.002124	28.5888
0.002581	35.8299
0.005456	43.0709
0.007364	49.9308
0.009755	57.1719
0.01892	62.5074
0.024699	68.6051
0.037252	72.7973
0.046906	76.4178
0.078776	85.7549
0.100996	89.9471
0.117894	95.6637
0.142529	100.618
0.162815	105.191
0.184068	109.384
0.200485	114.338
0.224638	118.911
0.242022	123.866
0.260371	129.201
0.281618	135.299
0.304789	144.064
0.35597	160.071
0.408167	162.357
0.477757	167.312
0.506754	168.836
0.556054	170.361
0.605834	172.647
0.659479	175.696
0.707809	177.983
0.757585	181.413
0.80639	185.986
0.862443	191.322
0.912688	198.944
0.953241	213.045
0.977355	228.289
0.989852	248.107
0.997509	269.449
1.00463	306.416
0.991653	284.693
0.963804	232.862
0.934866	214.95
0.890427	205.804
0.839213	198.944
0.792818	196.276
0.740624	193.227
0.691323	192.084
0.639126	189.797
0.588861	187.892
0.540524	187.511
0.48639	185.986
0.437089	184.843
0.386828	181.794
0.335602	178.364
0.286364	159.69
0.245811	145.589
0.204277	135.299
0.164672	126.152
0.125064	118.149
0.092217	111.67
0.070004	105.572
0.041035	96.0448
0.027517	91.4715
0.015939	84.9927
0.007272	75.465
0.004395	68.9862
0.003933	63.079
