Adsorption isotherm of Argon on Cu-MOF
DOI: 10.1016/j.micromeso.2011.01.005
Adsorbate Argon: InChIKey XKRFYHLGVUSROY-UHFFFAOYSA-N
Temperature: 77 K
Tabular data in the source: 0
pressure (bar)	uptake (cm3(STP)/g)
0.00418595	106.145
0.0083719	203.352
0.0293017	211.173
0.0460455	214.525
0.0669752	217.877
0.087905	220.112
0.0962769	223.464
0.108835	226.816
0.121393	265.922
0.129764	300.559
0.146508	325.14
0.163252	365.363
0.179996	372.067
0.221855	377.654
0.246971	383.24
0.284645	388.827
0.318132	388.827
0.46464	396.648
0.623707	400
0.699054	403.352
0.766029	405.587
0.782773	405.587
0.812074	406.704
0.828818	406.704
0.853934	406.704
0.870678	407.821
