Adsorption isotherm of Nitrogen on Cu-MOF
DOI: 10.1016/j.micromeso.2011.01.005
Adsorbate Nitrogen: InChIKey IJGRMHOSHXDMSA-UHFFFAOYSA-N
Temperature: 77 K
Tabular data in the source: 0
pressure (bar)	uptake (cm3(STP)/g)
0.00813655	0.00813655
0.0162731	171.151
0.0203414	179.402
0.0366145	182.511
0.0650924	189.757
0.101707	193.918
0.122048	196
0.166799	199.139
0.183072	200.186
0.203414	201.238
0.345803	215.816
0.362076	217.894
0.406827	220.002
0.427169	222.084
0.443442	222.101
0.463783	223.152
0.504466	225.256
0.528876	226.311
0.56549	228.411
0.5899	229.466
0.626514	230.535
0.663129	231.603
0.68347	232.654
0.728221	233.731
0.764835	234.799
0.789245	235.855
0.809586	234.845
0.866542	236.964
0.907225	239.068
0.935703	240.128
0.956044	241.179
0.984522	244.301
1.00486	251.538
