Adsorption isotherm of Nitrogen on Cu-MOF
DOI: 10.1016/j.micromeso.2011.01.005
Adsorbate Nitrogen: InChIKey IJGRMHOSHXDMSA-UHFFFAOYSA-N
Temperature: 77 K
Tabular data in the source: 0
pressure (bar)	uptake (cm3(STP)/g)
0	16.4948
0.0122048	27.8475
0.0203414	34.0413
0.0284779	38.1733
0.0488193	42.3177
0.0691606	44.4003
0.0935703	45.4561
0.113912	46.5077
0.130185	47.5552
0.138321	46.5325
0.162731	47.5883
0.183072	48.6399
0.203414	47.6297
0.244096	48.702
0.264438	49.7537
0.288847	49.7785
0.325462	50.8467
0.366145	50.8881
0.406827	50.9295
0.44751	52.0018
0.504466	53.0907
0.549217	54.1672
0.5899	55.2395
0.646855	57.3593
0.687538	58.4317
0.728221	59.504
0.748562	60.5556
0.785177	60.5929
0.809586	60.6177
0.829928	60.6384
0.911293	62.7831
0.960112	63.8637
1.00486	69.0639
