Adsorption isotherm of Nitrogen on Cu-MOF
DOI: 10.1016/j.micromeso.2011.01.005
Adsorbate Nitrogen: InChIKey IJGRMHOSHXDMSA-UHFFFAOYSA-N
Temperature: 77 K
Tabular data in the source: 0
pressure (bar)	uptake (cm3(STP)/g)
0.00346249	143.733
0.00542007	172.702
0.00547297	162.674
0.0138147	181.616
0.0327849	186.072
0.0559878	188.301
0.0834173	189.415
0.10451	191.643
0.119289	190.529
0.144608	191.643
0.161491	191.643
0.182595	191.643
0.201589	191.643
0.224803	191.643
0.264896	192.758
0.302883	192.758
0.345091	192.758
0.383073	193.872
0.404183	192.758
0.427392	193.872
0.469582	197.214
0.480099	203.9
0.503249	216.156
0.52637	233.983
0.55374	246.24
0.57903	252.925
0.604332	257.382
0.623308	260.724
0.644406	261.838
0.667621	261.838
0.686603	264.067
0.707701	265.181
0.726683	267.409
0.758292	276.323
0.773018	285.237
0.791982	290.808
0.80883	297.493
0.832004	305.292
0.846753	309.749
0.869944	314.206
0.888915	318.663
0.912117	320.891
0.939518	327.577
0.96272	329.805
0.981685	335.376
0.996446	337.604
1.00695	347.632
