Adsorption isotherm of Nitrogen on Cu-MOF
DOI: 10.1016/j.micromeso.2011.01.005
Adsorbate Nitrogen: InChIKey IJGRMHOSHXDMSA-UHFFFAOYSA-N
Temperature: 77 K
Tabular data in the source: 0
pressure (bar)	uptake (cm3(STP)/g)
0.00535979	190.476
0.00543712	175.91
0.020178	199.44
0.0392734	202.801
0.0583806	203.922
0.0923478	206.162
0.117826	207.283
0.139057	208.403
0.160294	208.403
0.179407	208.403
0.20065	207.283
0.219757	208.403
0.260101	209.524
0.321688	209.524
0.345049	209.524
0.362033	210.644
0.383275	209.524
0.402377	211.765
0.423614	211.765
0.442655	225.21
0.47018	240.896
0.482893	246.499
0.499858	250.98
0.525319	255.462
0.542296	257.703
0.563521	259.944
0.582611	264.426
0.627095	285.714
0.652538	293.557
0.701347	300.28
0.72469	303.641
0.750168	304.762
0.788377	308.123
0.845704	310.364
0.871177	312.605
0.907274	313.725
0.936993	315.966
0.983691	320.448
0.994279	326.05
1.00486	332.773
