Adsorption isotherm of Nitrogen on Cu-MOF
DOI: 10.1016/j.micromeso.2011.01.005
Adsorbate Nitrogen: InChIKey IJGRMHOSHXDMSA-UHFFFAOYSA-N
Temperature: 77 K
Tabular data in the source: 0
pressure (bar)	uptake (cm3(STP)/g)
0.00339077	161.345
0.00538953	184.874
0.00745373	196.078
0.0244076	202.801
0.122062	209.524
0.20275	211.765
0.223987	211.765
0.243106	210.644
0.304687	211.765
0.36415	211.765
0.425737	211.765
0.449044	221.849
0.474493	228.571
0.482946	236.415
0.504106	250.98
0.529542	259.944
0.55925	264.426
0.582593	267.787
0.603836	266.667
0.627184	268.908
0.644156	272.269
0.669569	285.714
0.695	295.798
0.701353	299.16
0.728925	305.882
0.745903	308.123
0.767116	312.605
0.807442	317.087
0.830797	318.207
0.905102	322.689
0.934822	324.93
0.960306	324.93
0.97939	330.532
1.00695	339.496
