Adsorption isotherm of Nitrogen on Cu-MOF
DOI: 10.1016/j.micromeso.2011.01.005
Adsorbate Nitrogen: InChIKey IJGRMHOSHXDMSA-UHFFFAOYSA-N
Temperature: 77 K
Tabular data in the source: 0
pressure (bar)	uptake (cm3(STP)/g)
0.00406827	141.241
0.00813655	177.328
0.0162731	198.986
0.0406827	202.103
0.089502	205.246
0.122048	208.372
0.203414	208.454
0.223755	208.475
0.301052	208.554
0.362076	210.678
0.402759	211.75
0.406827	212.785
0.4231	297.338
0.463783	332.431
0.475988	339.66
0.520739	355.169
0.545149	357.256
0.569558	360.373
0.593968	363.491
0.622446	365.582
0.650924	367.673
0.68347	368.737
0.728221	370.844
0.760767	371.908
0.809586	374.02
0.858406	376.131
0.886884	377.191
0.931635	379.299
0.964181	379.332
1.0008	384.524
