Adsorption isotherm of Nitrogen on Cu-MOF
DOI: 10.1016/j.micromeso.2011.01.005
Adsorbate Nitrogen: InChIKey IJGRMHOSHXDMSA-UHFFFAOYSA-N
Temperature: 77 K
Tabular data in the source: 0
pressure (bar)	uptake (cm3(STP)/g)
0.00415164	0.00417459
0.0124549	201.047
0.0249098	205.236
0.0498197	209.424
0.0705778	209.424
0.0913361	207.33
0.120397	209.424
0.141156	209.424
0.170217	211.518
0.207582	211.518
0.240795	211.518
0.269856	211.518
0.315525	211.518
0.361192	213.613
0.415164	215.707
0.444225	213.613
0.45668	257.592
0.469136	307.853
0.510652	347.644
0.535561	358.115
0.560472	364.398
0.58123	368.586
0.606139	374.869
0.631049	376.963
0.664262	379.058
0.689172	381.152
0.73484	383.246
0.75975	387.435
0.805418	387.435
0.830328	387.435
0.863541	387.435
0.917512	389.529
0.979787	389.529
1.00885	395.812
1.013	395.812
