Adsorption isotherm of Nitrogen on Cu-MOF
DOI: 10.1016/j.micromeso.2011.01.005
Adsorbate Nitrogen: InChIKey IJGRMHOSHXDMSA-UHFFFAOYSA-N
Temperature: 77 K
Tabular data in the source: 0
pressure (bar)	uptake (cm3(STP)/g)
0.0325462	181.476
0.0610241	186.66
0.0854337	188.747
0.101707	189.794
0.122048	189.815
0.14239	190.867
0.162731	191.918
0.179004	192.966
0.203414	192.991
0.223755	193.011
0.244096	194.063
0.260369	194.079
0.284779	196.166
0.301052	195.152
0.345803	196.228
0.366145	197.28
0.386486	197.301
0.406827	198.352
0.414964	220.01
0.427169	242.703
0.439373	254.055
0.459715	267.478
0.475988	272.649
0.496329	280.917
0.504466	282.988
0.520739	288.159
0.549217	293.342
0.56549	296.452
0.585831	298.534
0.602104	300.613
0.622446	304.757
0.646855	305.813
0.667197	306.865
0.687538	308.947
0.724153	312.077
0.789245	317.298
0.833996	319.405
0.866542	321.5
0.886884	322.552
0.903157	323.6
0.931635	324.659
0.956044	326.746
0.984522	328.837
1.0008	334.008
