Adsorption isotherm of Nitrogen on Cu-MOF
DOI: 10.1016/j.micromeso.2011.01.005
Adsorbate Nitrogen: InChIKey IJGRMHOSHXDMSA-UHFFFAOYSA-N
Temperature: 77 K
Tabular data in the source: 0
pressure (bar)	uptake (cm3(STP)/g)
2.21e-16	2.22e-16
0.00415164	121.466
0.0290614	198.953
0.058123	205.236
0.0996392	205.236
0.137004	205.236
0.182672	205.236
0.224189	205.236
0.265705	205.236
0.319676	205.236
0.365344	207.33
0.406861	207.33
0.440074	209.424
0.45668	245.026
0.473287	280.628
0.498197	309.948
0.510652	324.607
0.527258	339.267
0.548016	347.644
0.568775	353.927
0.589533	356.021
0.610291	362.304
0.631049	364.398
0.672566	368.586
0.714082	372.775
0.755598	372.775
0.801266	372.775
0.830328	374.869
0.851086	374.869
0.900906	374.869
0.925816	376.963
0.954877	376.963
0.971484	379.058
0.992242	376.963
1.00885	385.34
