Adsorption isotherm of Nitrogen on Cu-MOF
DOI: 10.1016/j.micromeso.2011.01.005
Adsorbate Nitrogen: InChIKey IJGRMHOSHXDMSA-UHFFFAOYSA-N
Temperature: 77 K
Tabular data in the source: 0
pressure (bar)	uptake (cm3(STP)/g)
0.0122048	161.868
0.0325462	175.291
0.0528876	179.435
0.0732289	181.518
0.101707	183.609
0.122048	185.691
0.146458	185.716
0.183072	186.784
0.223755	188.888
0.244096	188.908
0.264438	188.929
0.284779	189.981
0.301052	191.028
0.317325	202.385
0.35394	222.01
0.362076	228.204
0.386486	237.507
0.406827	244.744
0.4231	250.946
0.44751	257.156
0.463783	261.297
0.480056	265.437
0.508534	269.59
0.528876	272.703
0.549217	275.817
0.56549	277.895
0.585831	281.009
0.606173	282.06
0.626514	284.143
0.646855	286.225
0.68347	289.355
0.711948	291.446
0.728221	292.494
0.768904	295.628
0.805518	297.727
0.825859	298.779
0.862474	299.847
0.882815	301.929
0.907225	302.985
0.931635	305.072
0.960112	306.132
0.980454	309.245
0.992659	311.32
1.00486	315.456
