Adsorption isotherm of Nitrogen on Cu-MOF
DOI: 10.1016/j.micromeso.2011.01.005
Adsorbate Nitrogen: InChIKey IJGRMHOSHXDMSA-UHFFFAOYSA-N
Temperature: 77 K
Tabular data in the source: 0
pressure (bar)	uptake (cm3(STP)/g)
0	160.422
0.00833294	140.369
0.0249988	204.749
0.0999952	203.694
0.183325	204.749
0.229156	203.694
0.262488	204.749
0.299986	204.749
0.320818	204.749
0.387482	205.805
0.43748	205.805
0.466644	206.86
0.474977	251.187
0.48331	272.296
0.487477	277.573
0.491643	284.96
0.49581	291.293
0.499976	301.847
0.50831	311.346
