Adsorption isotherm of Benzene on {Cd3(L)(bipy)2*4DMA}n
DOI: 10.1039/c4mh00210e
Article source: Figure 2
Adsorbate Benzene: InChIKey UHOVQNZJYSORNB-UHFFFAOYSA-N
Kind: experiment
Temperature: 293 K
Tabular data in the source: 0
pressure (bar)	uptake (cm3(STP)/g)
0.001104	58.896
0.003181	47.772
0.004376	62.993
0.006401	50.54
0.009905	66.062
0.011579	52.8
0.016442	54.72
0.018966	70.496
0.021655	56.343
0.026937	57.966
0.027572	72.677
0.032009	59.334
0.036738	74.476
0.037222	60.702
0.042539	62.07
0.044959	75.763
0.047927	63.438
0.053058	64.79
0.05434	77.273
0.057972	65.708
0.062912	78.544
0.063063	66.867
0.068264	68.08
0.071661	79.547
0.073288	69.881
0.078644	71.817
0.080498	80.738
0.083845	74.101
0.089181	81.367
0.090017	77.029
0.094799	79.875
0.097115	82.128
0.099009	81.863
