Adsorption isotherm of Hydrogen on {Cd3(L)(bipy)2*4DMA}n
DOI: 10.1039/c4mh00210e
Article source: Figure 2
Adsorbate Hydrogen: InChIKey UFHFLCQGNIYNRP-UHFFFAOYSA-N
Kind: experiment
Temperature: 77 K
Tabular data in the source: 0
pressure (bar)	uptake (cm3(STP)/g)
0.002219	0.554
0.003648	4.983
0.008501	9.204
0.013932	12.457
0.018076	14.775
0.021076	17.163
0.028513	22.076
0.037227	27.163
0.04666	31.142
0.054523	34.706
0.063804	38.339
0.072528	40.9
0.080097	43.668
0.091111	46.471
0.098822	49.031
0.108256	51.003
0.11469	52.907
0.129696	55.536
0.138704	57.993
0.148279	59.1
0.165433	62.491
0.184442	65.848
0.229319	72.803
0.275493	78.201
0.316945	82.561
0.320805	83.218
0.35636	86.661
0.366229	87.897
0.396525	90.644
0.413426	92.154
0.435221	93.841
0.459884	96.142
0.475316	97.509
0.504882	99.421
0.513971	100.445
0.552515	103.322
0.593927	107.094
0.596987	106.27
0.631822	110.28
0.641235	109.841
0.67371	112.761
0.690196	112.172
0.702081	114.853
0.711443	115.355
0.734404	115.595
0.752875	117.778
0.792807	120.414
0.828889	121.293
0.829335	121.303
0.849985	122.419
0.855092	123.408
0.873928	123.27
0.876877	124.451
0.888671	124.314
0.905694	125.907
0.921885	127.191
0.956194	128.717
0.968616	129.48
