Adsorption isotherm of Nitrogen on {Cd3(L)(bipy)2*4DMA}n
DOI: 10.1039/c4mh00210e
Article source: Figure 2
Adsorbate Nitrogen: InChIKey IJGRMHOSHXDMSA-UHFFFAOYSA-N
Kind: experiment
Temperature: 77 K
Tabular data in the source: 0
pressure (bar)	uptake (cm3(STP)/g)
0.000567	12.998
0.001469	89.169
0.001611	71.74
0.002746	104.66
0.002888	111.496
0.005451	134.706
0.01145	142.027
0.021815	145.678
0.032313	149.832
0.042283	149.547
0.057046	152.556
0.059387	151.553
0.071991	152.163
0.079378	154.736
0.086765	153.384
0.091628	155.521
0.10171	154.038
0.111437	156.175
0.122421	154.736
0.131601	157.003
0.142949	155.564
0.152494	157.57
0.162941	156.131
0.17285	158.224
0.183115	156.566
0.192659	158.66
0.203825	156.828
0.212833	159.008
0.224171	157.264
0.232814	159.095
0.243089	157.743
0.253708	159.487
0.264519	158.135
0.274246	159.792
0.284146	158.396
0.293153	159.966
0.305039	158.352
0.314584	160.184
0.324666	158.701
0.334069	160.298
0.344931	158.844
0.354506	160.367
0.365368	159.225
0.374376	160.609
0.385096	159.432
0.395097	160.574
0.405107	159.155
0.41597	160.747
0.425545	159.604
0.435697	160.712
0.44585	159.465
0.455142	160.815
0.466288	159.465
0.476005	161.265
0.486015	159.846
0.496158	161.957
0.506595	160.261
0.516028	162.268
0.527326	159.81
0.53604	161.922
0.547337	159.568
0.556629	162.025
0.567775	159.81
0.577208	162.059
0.587786	159.948
0.59651	162.094
0.60794	159.913
0.617951	162.232
0.628529	159.532
0.637679	162.266
0.648399	159.6
0.657832	161.92
0.669414	159.462
0.678411	161.885
0.689132	159.115
0.698909	161.486
0.709711	159.392
0.718718	161.006
0.730969	159.392
0.739612	161.529
0.750595	158.999
0.759786	161.746
0.771489	158.388
0.779777	161.092
0.789676	157.908
0.801025	160.874
0.810033	158.344
0.820114	160.568
0.832365	158.256
0.840288	161.004
0.851637	158.605
0.86028	160.873
0.872884	158.386
0.880808	161.003
0.893231	158.691
0.900435	160.959
0.911783	158.778
0.921693	161.002
0.934115	161.142
0.934298	161.177
0.953022	161.482
0.953387	161.408
0.974635	161.743
0.994991	162.179
1.00345	162.92
