Adsorption isotherm of Hydrogen on {Cd3(L)(bipy)2*4DMA}n
DOI: 10.1039/c4mh00210e
Article source: Figure 2
Adsorbate Hydrogen: InChIKey UFHFLCQGNIYNRP-UHFFFAOYSA-N
Kind: experiment
Temperature: 87 K
Tabular data in the source: 0
pressure (bar)	uptake (cm3(STP)/g)
0.001023	0.105
0.006069	1.761
0.017772	5.859
0.028128	7.974
0.036315	10.895
0.046589	12.878
0.055496	14.796
0.063784	17.543
0.072113	19.557
0.081415	21.205
0.09253	23.018
0.097748	24.83
0.109776	26.204
0.114771	28.126
0.130648	28.785
0.136779	31.861
0.149941	31.751
0.166274	34.498
0.184199	38.727
0.185567	37.134
0.228903	44.824
0.274966	49.878
0.275411	49.932
0.316712	51.415
0.321474	54.821
0.356877	55.26
0.367769	59.38
0.396586	58.446
0.412464	63.334
0.43516	61.357
0.460117	66.96
0.476005	64.158
0.506858	70.365
0.514579	67.454
0.550022	73.374
0.555464	69.948
0.594909	72.647
0.597909	76.522
0.632937	75.208
0.64237	79.291
0.672099	77.837
0.688828	82.024
0.699832	79.464
0.71198	80.225
0.735569	84.654
0.752723	82.543
0.791895	85
0.829051	90.225
0.831058	86.799
0.850644	91.505
0.85193	88.495
0.873087	92.82
0.874374	92.787
0.888661	93.512
0.903393	91.194
0.907102	94.377
0.921976	93.824
0.956853	95.311
0.968718	95.9
