Adsorption isotherm of Carbon Dioxide on DMOF-1-AM3
DOI: 10.1021/Ja907742z
Adsorbate Carbon Dioxide: InChIKey CURLTUGMZLYLDI-UHFFFAOYSA-N
Temperature: 196 K
Tabular data in the source: 0
pressure (bar)	uptake (mol/mol)
0.000442465	0.635379
0.0118259	0.981949
0.0175779	1.24188
0.0344117	1.41516
0.0568165	1.58845
0.0735698	1.64621
0.104291	1.76173
0.137777	1.84838
0.157739	2.51264
0.163611	2.94585
0.191768	3.37906
0.220026	3.95668
0.256438	4.24549
0.290046	4.50542
0.306859	4.64982
0.343232	4.88087
0.376839	5.14079
0.410386	5.31408
0.446718	5.48736
0.480205	5.57401
0.510906	5.66065
0.547178	5.74729
0.577899	5.86282
0.614131	5.8917
0.650403	5.97834
0.683889	6.06498
0.71457	6.12274
0.750822	6.18051
0.781503	6.23827
0.817755	6.29603
0.851221	6.35379
0.881902	6.41155
0.918114	6.41155
0.954366	6.46931
0.987852	6.55596
