Adsorption isotherm of Nitrogen on DMOF-1-AM3
DOI: 10.1021/Ja907742z
Adsorbate Nitrogen: InChIKey IJGRMHOSHXDMSA-UHFFFAOYSA-N
Temperature: 77 K
Tabular data in the source: 0
pressure (bar)	uptake (cm3(STP)/g)
0	63
0.00603125	66.9881
0.0120625	70.9762
0.0150781	98.9702
0.0180938	113.964
0.0211094	123.958
0.024125	135.952
0.0271406	138.946
0.0301562	147.94
0.0361875	151.929
0.0422187	159.917
0.0512656	166.899
0.0633281	171.875
0.0784063	175.845
0.0874531	177.827
0.0995156	180.804
0.114594	182.774
0.126656	184.75
0.135703	185.732
0.138719	186.726
0.147766	186.708
0.150781	186.702
0.174906	188.655
0.199031	190.607
0.226172	192.554
0.253312	194.5
0.274422	195.458
0.304578	195.399
0.325687	197.357
0.352828	198.304
0.376953	199.256
0.404094	200.202
0.437266	200.137
0.455359	201.101
0.4825	201.048
0.506625	202
0.533766	202.946
0.557891	203.899
0.585031	203.845
0.609156	204.798
0.633281	204.75
0.660422	204.696
0.684547	206.649
0.711687	207.595
0.735812	207.548
0.759937	208.5
0.790094	208.44
0.811203	209.399
0.832312	210.357
0.859453	211.304
0.889609	212.244
0.907703	212.208
0.937859	215.149
0.961984	217.101
