Adsorption isotherm of Carbon Dioxide on DMOF-1-AM3
DOI: 10.1021/Ja907742z
Adsorbate Carbon Dioxide: InChIKey CURLTUGMZLYLDI-UHFFFAOYSA-N
Temperature: 196 K
Tabular data in the source: 0
pressure (bar)	uptake (cm3(STP)/g)
0.00536928	54.878
0.00549187	44.7154
0.0143426	60.9756
0.0323628	67.0732
0.0444008	69.1057
0.0654611	73.1707
0.0895616	75.2033
0.116653	79.2683
0.128593	89.4309
0.146478	106.707
0.17042	121.951
0.194397	134.146
0.22144	142.276
0.254538	148.374
0.272571	153.455
0.302666	158.537
0.329745	163.618
0.359803	171.748
0.389923	174.797
0.426098	175.813
0.45319	179.878
0.483321	181.911
0.513453	183.943
0.543585	185.976
0.579748	188.008
0.606888	188.008
0.637008	191.057
0.670155	193.089
0.69124	195.122
0.724412	195.122
0.757559	197.154
0.784688	198.171
0.817835	200.203
0.847967	202.236
0.875083	204.268
