Adsorption isotherm of Carbon Dioxide on DMOF-1-AM3
DOI: 10.1021/Ja907742z
Adsorbate Carbon Dioxide: InChIKey CURLTUGMZLYLDI-UHFFFAOYSA-N
Temperature: 196 K
Tabular data in the source: 0
pressure (bar)	uptake (cm3(STP)/g)
0.00597327	0.577617
0.00904035	0.981949
0.0203634	1.24188
0.0372173	1.44404
0.0567964	1.55957
0.0763754	1.67509
0.104291	1.76173
0.134972	1.81949
0.173969	1.81949
0.207435	1.87726
0.246453	1.90614
0.277114	1.93502
0.307754	1.93502
0.352343	1.9639
0.394145	1.99278
0.455427	1.99278
0.488893	2.05054
0.519514	2.02166
0.558511	2.02166
0.591937	2.02166
0.636525	2.05054
0.686665	2.05054
0.71454	2.07942
0.759088	2.05054
0.786963	2.07942
0.82039	2.07942
0.862172	2.07942
0.90119	2.1083
0.934616	2.1083
0.959685	2.1083
0.98752	2.07942
1.00425	2.1083
