Adsorption isotherm of Methane on Linde 5A Pellets
DOI: 10.1021/ie00103a064
Article source: Table III
Adsorbate Methane: InChIKey VNWKTOKETHGBQD-UHFFFAOYSA-N
Kind: experiment
Temperature: 300 K
Tabular data in the source: 0
pressure (bar)	uptake (mmol/g)
0.2539	0.14
0.5893	0.319
0.9563	0.488
1.3858	0.673
1.8678	0.86
2.3752	1.037
2.9013	1.202
2.4887	1.367
3.7507	1.435
4.3106	1.571
4.8939	1.693
5.6061	1.823
6.7775	2.002
8.1268	2.189
9.5327	2.412
10.4662	2.508
11.6659	2.626
13.0483	2.74
