Adsorption isotherm of N-propane on Linde 5A Pellets
DOI: 10.1021/ie00103a064
Article source: Table III
Adsorbate N-propane: InChIKey ATUOYWHBWRKTHZ-UHFFFAOYSA-N
Kind: experiment
Temperature: 300 K
Tabular data in the source: 0
pressure (bar)	uptake (mmol/g)
0.0022	0.195
0.0041	0.386
0.0063	0.557
0.0086	0.756
0.0123	1.007
0.0185	1.305
0.0383	1.659
0.0696	1.867
0.1187	1.996
0.291	2.159
0.615	2.279
1.0756	2.344
1.6237	2.405
2.3132	2.457
2.9303	2.474
