Adsorption isotherm of Ethane, Methane on Linde 5A Pellets
DOI: 10.1021/ie00103a064
Article source: Table VI
Adsorbate Ethane: InChIKey OTMSDBZUPAUEDD-UHFFFAOYSA-N
Adsorbate Methane: InChIKey VNWKTOKETHGBQD-UHFFFAOYSA-N
Kind: experiment
Temperature: 300 K
Tabular data in the source: 0
pressure (bar)	Ethane fraction	Ethane uptake (mmol/g)	Methane fraction	Methane uptake (mmol/g)	total uptake (mmol/g)
3.5549	0.62359	2.21	0.37641	0.4	
4.1592	0.601991	1.92	0.398009	0.13	
3.5266	0.447201	1.91	0.552799	0.21	
3.4728	0.374395	1.82	0.625605	0.29	
3.4777	0.319205	1.75	0.680795	0.36	
3.4563	0.278101	1.68	0.721899	0.41	
3.4322	0.247392	1.61	0.752608	0.46	
3.448	0.220302	1.55	0.779698	0.52	
3.4618	0.198596	1.49	0.801404	0.56	
3.5211	0.198603	1.49	0.801397	0.56	
3.5232	0.183697	1.44	0.816303	0.58	
3.4225	0.170197	1.39	0.829803	0.62	
3.4611	0.1568	1.35	0.8432	0.66	
3.4502	0.146107	1.31	0.853893	0.69	
3.4412	0.136609	1.27	0.863391	0.72	
3.4584	0.127892	1.23	0.872108	0.74	
3.4646	0.127894	1.23	0.872106	0.74	
3.4563	0.120707	1.19	0.879293	0.77	
3.4488	0.114301	1.16	0.885699	0.8	
3.4591	0.108005	1.13	0.891995	0.83	
3.457	0.102806	1.1	0.897194	0.85	
3.4563	0.097503	1.07	0.902497	0.88	
3.4446	0.092899	1.04	0.907101	0.91	
3.4522	0.088813	1.01	0.911187	0.94	
3.4825	0.084795	0.98	0.915205	0.96	
3.4515	0.081501	0.96	0.918499	0.98	
3.4474	0.078204	0.94	0.921796	1	
3.446	0.075102	0.91	0.924898	1.01	
