Adsorption isotherm of Ethane, Methane on Linde 13X Pellets
DOI: 10.1021/ie00103a064
Article source: Table VIII
Adsorbate Ethane: InChIKey OTMSDBZUPAUEDD-UHFFFAOYSA-N
Adsorbate Methane: InChIKey VNWKTOKETHGBQD-UHFFFAOYSA-N
Kind: experiment
Temperature: 300 K
Tabular data in the source: 0
pressure (bar)	Ethane fraction	Ethane uptake (mmol/g)	Methane fraction	Methane uptake (mmol/g)	total uptake (mmol/g)
3.4839	0.731594	2.629	0.268406	0.082	
3.4577	0.570697	2.519	0.429303	0.092	
3.4474	0.464292	2.418	0.535708	0.183	
3.4364	0.389797	2.324	0.610203	0.23	
3.4322	0.335295	2.236	0.664705	0.251	
3.4577	0.293692	2.156	0.706308	0.323	
3.4611	0.262402	2.082	0.737598	0.36	
3.4391	0.238609	2.014	0.761391	0.398	
3.4473	0.217097	1.95	0.782903	0.431	
6.5638	0.688702	2.621	0.311298	0.067	
6.5817	0.504095	2.482	0.495905	0.144	
6.5672	0.386603	2.352	0.613397	0.235	
6.5727	0.308199	2.231	0.691801	0.314	
6.5328	0.2577	2.117	0.7423	0.357	
6.6121	0.217904	2.01	0.782096	0.455	
6.5562	0.189607	1.917	0.810393	0.516	
6.5396	0.167396	1.83	0.832604	0.573	
6.2811	0.149401	1.75	0.850599	0.631	
