Adsorption isotherm of N-propane, Methane on Linde 5A Pellets
DOI: 10.1021/ie00103a064
Article source: Table VI
Adsorbate N-propane: InChIKey ATUOYWHBWRKTHZ-UHFFFAOYSA-N
Adsorbate Methane: InChIKey VNWKTOKETHGBQD-UHFFFAOYSA-N
Kind: experiment
Temperature: 300 K
Tabular data in the source: 0
pressure (bar)	N-propane fraction	N-propane uptake (mmol/g)	Methane fraction	Methane uptake (mmol/g)	total uptake (mmol/g)
3.648	0.731003	1.69	0.268997	0.06	
3.4432	0.548095	1.63	0.451905	0.07	
3.5397	0.394892	1.56	0.605108	0.09	
3.4929	0.310602	1.51	0.689398	0.1	
3.4715	0.24609	1.46	0.75391	0.16	
3.6528	0.193003	1.41	0.806997	0.17	
3.4998	0.166209	1.38	0.833791	0.17	
3.5004	0.141298	1.34	0.858702	0.19	
3.4108	0.125103	1.31	0.874897	0.2	
3.4467	0.10851	1.29	0.89149	0.21	
3.4811	0.095602	1.26	0.904398	0.21	
3.437	0.0865	1.24	0.9135	0.21	
3.4308	0.078203	1.22	0.921797	0.22	
3.4419	0.071211	1.2	0.928789	0.24	
3.4659	0.047491	1.19	0.952509	0.25	
