Adsorption isotherm of N-propane, Ethane on Linde 5A Pellets
DOI: 10.1021/ie00103a064
Article source: Table VI
Adsorbate N-propane: InChIKey ATUOYWHBWRKTHZ-UHFFFAOYSA-N
Adsorbate Ethane: InChIKey OTMSDBZUPAUEDD-UHFFFAOYSA-N
Kind: experiment
Temperature: 300 K
Tabular data in the source: 0
pressure (bar)	N-propane fraction	N-propane uptake (mmol/g)	Ethane fraction	Ethane uptake (mmol/g)	total uptake (mmol/g)
3.4322	0.754006	1.99	0.245994	0.09	
3.4867	0.585797	1.88	0.414203	0.23	
3.4502	0.475799	1.78	0.524201	0.32	
3.4618	0.393206	1.68	0.606794	0.4	
3.4419	0.333508	1.6	0.666492	0.5	
3.4508	0.287991	1.53	0.712009	0.55	
3.4536	0.252809	1.46	0.747191	0.61	
3.4529	0.224391	1.4	0.775609	0.67	
3.4818	0.514504	1.9	0.485496	0.27	
3.4446	0.4233	1.81	0.5767	0.35	
3.4487	0.355293	1.73	0.644707	0.45	
3.446	0.304208	1.65	0.695792	0.52	
3.4543	0.264511	1.58	0.735489	0.59	
3.4605	0.233406	1.52	0.766594	0.64	
3.4674	0.20811	1.46	0.79189	0.7	
3.486	0.187206	1.41	0.812794	0.81	
