Adsorption isotherm of N-propane, Methane on Linde 13X Pellets
DOI: 10.1021/ie00103a064
Article source: Table VIII
Adsorbate N-propane: InChIKey ATUOYWHBWRKTHZ-UHFFFAOYSA-N
Adsorbate Methane: InChIKey VNWKTOKETHGBQD-UHFFFAOYSA-N
Kind: experiment
Temperature: 300 K
Tabular data in the source: 0
pressure (bar)	N-propane fraction	N-propane uptake (mmol/g)	Methane fraction	Methane uptake (mmol/g)	total uptake (mmol/g)
3.4578	0.666696	2.531	0.333304	0.025	
3.4508	0.469398	2.379	0.530602	0.044	
3.4543	0.345801	2.387	0.654199	0.08	
3.4639	0.2632	2.342	0.7368	0.155	
3.4425	0.209092	2.298	0.790908	0.196	
3.4563	0.169893	2.264	0.830107	0.239	
3.4439	0.142193	2.227	0.857807	0.289	
3.4536	0.121612	2.199	0.878388	0.319	
6.5465	0.339601	2.38	0.660399	0.041	
6.5548	0.243394	2.321	0.756606	0.076	
6.5631	0.183206	2.263	0.816794	0.099	
6.5451	0.142198	2.212	0.857802	0.119	
6.5445	0.112996	2.168	0.887004	0.169	
6.55	0.090794	2.131	0.909206	0.275	
6.6038	0.077198	2.093	0.922802	0.321	
