Adsorption isotherm of Hydrogen on NOTT-110
DOI: 10.1002/chem.200802292
Adsorbate Hydrogen: InChIKey UFHFLCQGNIYNRP-UHFFFAOYSA-N
Temperature: 88 K
Tabular data in the source: 0
pressure (bar)	uptake (wt%)
0.000801282	0.107692
0.211699	0.452308
0.31859	0.818462
0.371474	0.926154
0.580769	1.05538
0.582051	1.22769
0.634936	1.33538
0.791827	1.42154
1.05353	1.59385
1.26378	1.85231
2.57228	2.71385
3.51298	3.14462
5.0274	3.68308
6.01875	3.92
7.0101	4.15692
8.05321	4.35077
9.04407	4.52308
10.0349	4.69538
11.599	4.91077
13.2147	5.06154
14.5179	5.21231
16.0295	5.36308
17.4886	5.47077
19.104	5.57846
20.0941	5.64308
