Adsorption isotherm of Hydrogen on NOTT-111
DOI: 10.1002/chem.200802292
Adsorbate Hydrogen: InChIKey UFHFLCQGNIYNRP-UHFFFAOYSA-N
Temperature: 78 K
Tabular data in the source: 0
pressure (bar)	uptake (wt%)
0.0976773	0.632063
0.384544	1.60463
0.715381	2.16406
1.3743	2.86973
1.79746	3.25913
2.54853	3.77046
3.48653	4.28201
4.56341	4.5993
5.26581	4.8189
6.06151	5.01431
7.04413	5.20995
7.97969	5.35692
9.00903	5.55262
10.0846	5.67545
11.5811	5.84741
13.0308	6.01931
14.527	6.14265
16.0228	6.21739
17.6127	6.38946
19.1086	6.46419
19.9968	6.51388
