Adsorption isotherm of Hydrogen on NOTT-110
DOI: 10.1002/chem.200802292
Adsorbate Hydrogen: InChIKey UFHFLCQGNIYNRP-UHFFFAOYSA-N
Temperature: 77 K
Tabular data in the source: 0
pressure (bar)	uptake (wt%)
0.401802	0.664813
0.547451	1.25565
0.820005	1.84656
1.091	2.38823
1.87039	2.95477
2.26595	3.42265
3.29447	3.84162
4.57836	4.30995
6.75216	4.82794
8.15436	5.02555
9.42889	5.19849
10.828	5.29764
12.2286	5.44602
13.5016	5.56972
15.1521	5.59515
16.2982	5.71879
17.9487	5.74422
20.6169	5.844
22.0128	5.84468
25.0601	5.89541
27.8528	5.9214
32.0392	5.87423
35.5917	5.85137
38.8897	5.80376
42.4407	5.73166
44.2166	5.70792
46.2455	5.65969
48.0207	5.61133
49.7958	5.56298
51.5709	5.51462
53.3476	5.51549
55.8833	5.4429
