Adsorption isotherm of Nitrogen on NOTT-110
DOI: 10.1002/chem.200802292
Adsorbate Nitrogen: InChIKey IJGRMHOSHXDMSA-UHFFFAOYSA-N
Temperature: 78 K
Tabular data in the source: 0
pressure (bar)	uptake (cm3(STP)/g)
0.00947867	628.571
0.0189573	665.839
0.0473934	705.59
0.0995261	732.919
0.146919	742.857
0.182464	745.342
0.208531	755.28
0.251185	757.764
0.28673	757.764
0.350711	762.733
0.402844	772.671
0.464455	772.671
0.507109	775.155
0.585308	777.64
0.656398	782.609
0.703791	785.093
0.729858	785.093
0.808057	787.578
0.85782	787.578
0.902844	790.062
0.983412	792.547
