Adsorption isotherm of Nitrogen on NOTT-102
DOI: 10.1002/chem.200802292
Adsorbate Nitrogen: InChIKey IJGRMHOSHXDMSA-UHFFFAOYSA-N
Temperature: 78 K
Tabular data in the source: 0
pressure (bar)	uptake (cm3(STP)/g)
0.00236967	395.031
0.00473934	300.621
0.00947867	504.348
0.0118483	561.491
0.0189573	598.758
0.0308057	636.025
0.0473934	660.87
0.0971564	688.199
0.151659	703.106
0.203791	708.075
0.251185	713.043
0.300948	718.012
0.353081	720.497
0.400474	725.466
0.450237	725.466
0.5	727.95
0.552133	730.435
0.604265	730.435
0.651659	730.435
0.701422	732.919
0.751185	730.435
0.803318	732.919
0.853081	735.404
0.900474	735.404
0.952607	735.404
