Adsorption isotherm of Nitrogen on NOTT-111
DOI: 10.1002/chem.200802292
Adsorbate Nitrogen: InChIKey IJGRMHOSHXDMSA-UHFFFAOYSA-N
Temperature: 78 K
Tabular data in the source: 0
pressure (bar)	uptake (cm3(STP)/g)
0	335.404
0.00473934	514.286
0.00947867	573.913
0.014218	626.087
0.0165877	668.323
0.049763	710.559
0.104265	727.95
0.154028	735.404
0.187204	745.342
0.232227	745.342
0.263033	747.826
0.331754	750.311
0.405213	752.795
0.443128	757.764
0.507109	757.764
0.554502	762.733
0.64218	765.217
0.706161	765.217
0.803318	767.702
0.848341	767.702
0.909953	767.702
0.976303	767.702
