Adsorption isotherm of Hydrogen on NOTT-111
DOI: 10.1002/chem.200802292
Adsorbate Hydrogen: InChIKey UFHFLCQGNIYNRP-UHFFFAOYSA-N
Temperature: 77 K
Tabular data in the source: 0
pressure (bar)	uptake (wt%)
0.278802	0.78783
0.682166	1.50187
1.21087	2.16675
1.73802	2.78239
2.26517	3.39804
3.29447	3.84162
4.06762	4.21123
5.34917	4.60571
6.88062	4.87723
8.15593	5.07478
9.81195	5.27252
11.2118	5.39629
13.1185	5.49569
14.6437	5.57029
16.2958	5.64495
17.5672	5.71942
19.3463	5.79414
21.1237	5.81963
22.9004	5.8205
24.4233	5.82125
25.6939	5.87111
27.2175	5.89648
29.501	5.87299
30.7709	5.89823
32.4199	5.87442
34.0681	5.826
36.0978	5.80239
37.6207	5.80314
40.0303	5.75509
41.4239	5.68193
43.5805	5.65838
45.4841	5.65932
47.0054	5.61083
49.2874	5.53811
