Adsorption isotherm of Hydrogen on NOTT-110
DOI: 10.1002/chem.200802292
Adsorbate Hydrogen: InChIKey UFHFLCQGNIYNRP-UHFFFAOYSA-N
Temperature: 78 K
Tabular data in the source: 0
pressure (bar)	uptake (wt%)
0.0524934	0.599315
0.209974	1.00685
0.314961	1.53425
0.682415	2.06164
1.15486	2.7089
1.6273	3.14041
2.04724	3.59589
2.62467	3.83562
3.09711	4.07534
3.77953	4.31507
4.25197	4.53082
5.30184	4.79452
6.24672	5.01027
6.82415	5.17808
7.76903	5.27397
8.29396	5.41781
9.23885	5.58562
10.4987	5.75342
12.0735	5.87329
13.8583	6.06507
15.0656	6.13699
17.0079	6.30479
18.5302	6.42466
19.5276	6.44863
20	6.49658
