Adsorption isotherm of Hydrogen on NOTT-110
DOI: 10.1002/chem.200802292
Adsorbate Hydrogen: InChIKey UFHFLCQGNIYNRP-UHFFFAOYSA-N
Temperature: 78 K
Tabular data in the source: 0
pressure (bar)	uptake (wt%)
0.152245	0.644869
0.252848	1.19424
0.254456	0.979218
0.303596	1.40919
0.457807	1.79126
1.08037	2.55502
1.18365	2.74603
1.39165	2.9369
1.65182	3.15161
2.06835	3.46169
2.48488	3.77178
3.05883	4.03389
3.63333	4.22433
4.10293	4.43878
4.57306	4.58157
5.04302	4.74824
5.77494	4.89071
6.14072	4.98584
6.7681	5.10454
7.18624	5.19961
7.81363	5.31831
8.54572	5.43689
9.48707	5.57911
10.2717	5.67374
11.2132	5.79207
12.835	5.95736
14.5092	6.1226
16.0268	6.21635
16.9165	6.26307
18.2771	6.35701
19.8472	6.4268
