Adsorption isotherm of Hydrogen on NOTT-111
DOI: 10.1002/chem.200802292
Adsorbate Hydrogen: InChIKey UFHFLCQGNIYNRP-UHFFFAOYSA-N
Temperature: 88 K
Tabular data in the source: 0
pressure (bar)	uptake (wt%)
0.10101	0.10101
0.252525	0.545175
0.353535	0.796778
0.606061	1.04854
0.707071	1.15344
0.858586	1.36318
1.0101	1.57291
1.31313	1.76186
1.61616	1.97175
2.0202	2.28655
2.52525	2.53857
3.08081	2.81161
3.48485	2.9797
4.09091	3.16896
5.10101	3.48439
6.06061	3.75785
7.0202	4.03131
8.0303	4.15812
8.9899	4.30583
10.101	4.49561
11.5152	4.68572
13.0808	4.83407
14.4949	4.98226
16.0606	5.1306
17.4747	5.21592
18.9899	5.34325
20	5.38623
