Adsorption isotherm of Hydrogen on NOTT-111
DOI: 10.1002/chem.200802292
Adsorbate Hydrogen: InChIKey UFHFLCQGNIYNRP-UHFFFAOYSA-N
Temperature: 77 K
Tabular data in the source: 0
pressure (bar)	uptake (wt%)
0.428355	1.50175
1.47484	2.48688
2.0012	3.07791
2.65604	3.71823
3.30228	4.08778
3.81771	4.33419
4.4577	4.50681
5.48154	4.77808
6.24922	4.97538
7.14381	5.17275
8.03683	5.32088
9.05754	5.49369
9.94978	5.61721
10.9697	5.7654
12.1158	5.88904
13.261	5.98807
14.4071	6.11171
15.5524	6.21073
16.57	6.28508
17.5883	6.38404
18.7336	6.48307
20.0042	6.53293
21.1487	6.60733
22.2924	6.65713
23.563	6.70698
24.7075	6.78139
25.9789	6.85587
27.1226	6.90566
28.3933	6.95552
29.5378	7.02993
30.6807	7.0551
31.9505	7.08034
33.2204	7.10559
34.4902	7.13083
35.6331	7.156
36.903	7.18124
38.1728	7.20649
39.4426	7.23173
40.5856	7.2569
41.8554	7.28214
43.1252	7.30738
44.2689	7.35718
45.538	7.3578
46.8071	7.35843
47.9492	7.35899
