Adsorption isotherm of Hydrogen on NOTT-111
DOI: 10.1002/chem.200802292
Adsorbate Hydrogen: InChIKey UFHFLCQGNIYNRP-UHFFFAOYSA-N
Temperature: 78 K
Tabular data in the source: 0
pressure (bar)	uptake (wt%)
0.213904	0.760144
0.374332	1.16252
0.427807	1.52029
0.802139	2.23552
1.39037	2.77161
1.71123	3.12908
2.13904	3.4417
2.6738	3.73183
3.1016	3.93263
3.26203	4.02191
3.74332	4.20029
4.4385	4.44552
4.75936	4.55698
5.24064	4.66826
5.7754	4.84658
6.20321	4.89083
6.95187	5.09127
7.86096	5.26917
8.77005	5.40233
9.51872	5.49095
10.2674	5.57957
11.123	5.7128
11.8182	5.75675
12.6738	5.84525
13.369	5.91157
14.1176	6.00019
14.5989	5.99965
15.508	6.11045
16.5775	6.15399
17.9679	6.26425
18.8235	6.33039
20	6.3738
