Adsorption isotherm of Hydrogen on NOTT-102
DOI: 10.1002/chem.200802292
Adsorbate Hydrogen: InChIKey UFHFLCQGNIYNRP-UHFFFAOYSA-N
Temperature: 78 K
Tabular data in the source: 0
pressure (bar)	uptake (wt%)
0.0468916	0.0243625
0.383408	1.43449
0.760812	1.96967
1.27808	2.45641
1.65451	2.84576
2.49888	3.3329
3.52985	3.77165
5.07516	4.25964
6.05827	4.5282
7.08777	4.7482
8.11712	4.94389
9.00578	5.0665
10.035	5.23789
10.9704	5.36055
12.467	5.55682
13.5424	5.65535
15.132	5.77881
16.6749	5.90221
18.1243	6.0255
19.8068	6.05185
