Adsorption isotherm of Hydrogen on NOTT-110
DOI: 10.1002/chem.200802292
Adsorbate Hydrogen: InChIKey UFHFLCQGNIYNRP-UHFFFAOYSA-N
Temperature: 78 K
Tabular data in the source: 0
pressure (bar)	uptake (wt%)
0.384868	1.65325
1.23427	2.89386
2.03289	3.52678
3.01842	4.15992
4.04907	4.55006
5.03265	4.89153
6.06232	5.13584
6.99837	5.35573
8.02771	5.55142
9.01	5.69845
10.039	5.84553
11.5355	6.01749
13.0785	6.1652
14.528	6.28849
16.1172	6.36334
17.5201	6.51088
19.0625	6.56136
20.0441	6.61116
