Adsorption isotherm of Deuterium on NOTT-111
DOI: 10.1002/chem.200802292
Adsorbate Deuterium: InChIKey UFHFLCQGNIYNRP-VVKOMZTBSA-N
Temperature: 78 K
Tabular data in the source: 0
pressure (bar)	uptake (wt%)
0.0192308	0.598131
0.0769231	1.71963
0.211538	2.54206
0.307692	3.1028
0.403846	3.5514
0.5	4
0.615385	4.33645
0.711538	4.6729
0.807692	4.93458
0.923077	5.23364
1.01923	5.57009
1.23077	6.01869
1.51923	6.61682
1.73077	7.02804
1.86538	7.25234
2.01923	7.36449
2.19231	7.73832
2.5	8.03738
3	8.56075
3.51923	8.93458
4.03846	9.34579
5	9.90654
5.98077	10.3925
7	10.8411
8.01923	11.1028
