Adsorption isotherm of Hydrogen on NOTT-110
DOI: 10.1002/chem.200802292
Adsorbate Hydrogen: InChIKey UFHFLCQGNIYNRP-UHFFFAOYSA-N
Temperature: 77 K
Tabular data in the source: 0
pressure (bar)	uptake (wt%)
0.404926	0.763276
0.439288	1.84637
1.74505	3.00394
2.26673	3.44727
3.29603	3.89085
4.58929	4.65457
6.50615	5.07397
9.05832	5.51831
11.8596	5.81507
15.3009	6.28446
21.1503	6.65657
24.3284	6.83044
29.4116	7.05448
33.4765	7.17956
36.6515	7.25497
41.6063	7.42971
44.019	7.48013
46.0503	7.50575
48.59	7.55623
50.8751	7.58197
52.7786	7.58291
55.3183	7.63339
