Adsorption isotherm of Deuterium on NOTT-110
DOI: 10.1002/chem.200802292
Adsorbate Deuterium: InChIKey UFHFLCQGNIYNRP-VVKOMZTBSA-N
Temperature: 78 K
Tabular data in the source: 0
pressure (bar)	uptake (wt%)
0.0558208	1.08411
0.0742882	1.53271
0.207027	2.50467
0.301994	3.1028
0.39708	3.62617
0.511531	4.03738
0.606857	4.41121
0.683057	4.74766
0.778502	5.04673
0.874007	5.30841
1.00782	5.60748
1.19901	6.01869
1.48576	6.65421
2.02174	7.40187
2.50034	8.03738
2.97918	8.52336
3.49645	8.97196
3.99465	9.34579
5.01042	9.98131
5.96894	10.4299
6.40983	10.6542
6.98501	10.8785
7.36852	10.9907
8.00126	11.215
