Adsorption isotherm of Nitrogen on Limestone Meal
DOI: 10.1007/s10450-019-00033-5
Article source: Figure 3
Adsorbate Nitrogen: InChIKey IJGRMHOSHXDMSA-UHFFFAOYSA-N
Kind: experiment
Temperature: 77 K
Tabular data in the source: 0
pressure (bar)	uptake (cm3(STP)/g)
0.000726	0.351664
0.009436	0.377713
0.013791	0.455861
0.023952	0.455861
0.047179	0.534009
0.074034	0.599132
0.101615	0.599132
0.124116	0.65123
0.14952	0.65123
0.174198	0.703329
0.200327	0.755427
0.225005	0.755427
0.251861	0.794501
0.276539	0.794501
0.301943	0.846599
0.327347	0.846599
0.35275	0.885673
0.378154	0.898698
0.403558	0.950796
0.428962	0.98987
0.454366	1.00289
0.47977	1.05499
0.505173	1.04197
0.530577	1.10709
0.555981	1.10709
0.581385	1.14617
0.606789	1.19826
0.632193	1.21129
0.657596	1.25036
0.683	1.30246
0.708404	1.35456
0.733808	1.40666
0.759212	1.45876
0.785341	1.51085
0.810019	1.61505
0.835423	1.70622
0.860827	1.79739
0.886231	1.95369
0.911635	2.21418
0.933409	2.51375
0.958813	3.11288
0.98204	4.233
0.992927	5.63965
1.00744	8.57019
