Adsorption isotherm of Krypton on Limestone Meal
DOI: 10.1007/s10450-019-00033-5
Article source: Figure 5
Adsorbate Krypton: InChIKey DNNSSWSSYDEUBZ-UHFFFAOYSA-N
Kind: experiment
Temperature: 77 K
Tabular data in the source: 0
pressure (bar)	uptake (cm3(STP)/g)
0.000187	0.33277
0.000203	0.344595
0.000241	0.363176
0.000349	0.396115
0.000418	0.414696
0.000484	0.430743
0.000552	0.451014
0.000616	0.467061
