Adsorption isotherm of Nitrogen on Limestone Sand
DOI: 10.1007/s10450-019-00033-5
Article source: Figure 4
Adsorbate Nitrogen: InChIKey IJGRMHOSHXDMSA-UHFFFAOYSA-N
Kind: experiment
Temperature: 77 K
Tabular data in the source: 0
pressure (bar)	uptake (cm3(STP)/g)
0.001433	0.10061
0.010749	0.128049
0.026514	0.115854
0.050877	0.134146
0.077391	0.143293
0.103905	0.152439
0.123969	0.164634
0.151199	0.164634
0.17628	0.185976
0.20136	0.176829
0.22859	0.189024
0.251521	0.195122
0.278751	0.195122
0.304548	0.207317
0.329629	0.204268
0.354709	0.213415
0.37979	0.219512
0.405587	0.219512
0.4321	0.22561
0.456464	0.228659
0.479395	0.231707
0.505192	0.231707
0.530272	0.246951
0.556069	0.246951
0.581866	0.240854
0.606947	0.259146
0.632744	0.253049
0.657824	0.268293
0.683621	0.271341
0.708702	0.280488
0.731632	0.292683
0.755996	0.304878
0.78251	0.317073
0.808307	0.32622
0.834821	0.335366
0.859901	0.371951
0.884981	0.396341
0.911495	0.45122
0.935859	0.518293
0.960939	0.646341
0.98387	0.905488
0.995335	1.13415
1.0068	1.66158
