Adsorption isotherm of Krypton on Limestone Sand
DOI: 10.1007/s10450-019-00033-5
Article source: Figure 6
Adsorbate Krypton: InChIKey DNNSSWSSYDEUBZ-UHFFFAOYSA-N
Kind: experiment
Temperature: 77 K
Tabular data in the source: 0
pressure (bar)	uptake (cm3(STP)/g)
0.00019	0.059
0.000217	0.062333
0.000299	0.069333
0.00035	0.073667
0.000421	0.078667
0.000491	0.083667
0.00056	0.088167
0.000629	0.093333
