Adsorption isotherm of Hydrogen on Zeolite 13X
DOI: 10.1360/cjcp2006.19(5).457.6
Adsorbate Hydrogen: InChIKey UFHFLCQGNIYNRP-UHFFFAOYSA-N
Temperature: 195 K
Tabular data in the source: 0
pressure (bar)	uptake (mmol/g)
1.18203	0.0986678
3.15386	0.295851
6.80175	0.626837
8.67499	0.915569
12.5201	1.21839
14.8863	1.3874
18.7313	1.64796
21.3933	1.91557
26.2243	2.18317
29.3792	2.52825
33.1257	2.73951
36.7736	2.97895
41.3088	3.19022
46.337	3.71134
52.1539	4.13388
56.4919	4.42965
61.3229	4.60571
66.7454	4.98599
