Adsorption isotherm of Hydrogen on Zeolite Na-A
DOI: 10.1360/cjcp2006.19(5).457.6
Adsorbate Hydrogen: InChIKey UFHFLCQGNIYNRP-UHFFFAOYSA-N
Temperature: 293 K
Tabular data in the source: 0
pressure (bar)	uptake (mmol/g)
1.67499	0.021203
4.82992	0.0564143
6.50598	0.133879
10.1539	0.197259
13.9003	0.281766
18.7313	0.380358
23.8581	0.478949
29.9708	0.60571
35.2947	0.683175
38.5482	0.739513
46.2384	0.880358
50.3792	0.95078
54.8158	1.05641
59.0553	1.11979
65.0694	1.21839
70.6891	1.32402
