Adsorption isotherm of Hydrogen on ZSM-5
DOI: 10.1360/cjcp2006.19(5).457.6
Adsorbate Hydrogen: InChIKey UFHFLCQGNIYNRP-UHFFFAOYSA-N
Temperature: 77 K
Tabular data in the source: 0
pressure (bar)	uptake (mmol/g)
1.8625	3.67656
6.868	6.94015
9.8713	7.96127
13.275	8.54191
20.2827	9.40286
24.8878	9.58305
33.297	9.74323
38.2024	9.90341
42.0066	10.0035
47.2123	10.0836
51.6172	10.1437
56.7228	9.92343
61.6282	9.66314
67.5347	9.48295
