Adsorption isotherm of Hydrogen on Zeolite CaA
DOI: 10.1360/cjcp2006.19(5).457.6
Adsorbate Hydrogen: InChIKey UFHFLCQGNIYNRP-UHFFFAOYSA-N
Temperature: 195 K
Tabular data in the source: 0
pressure (bar)	uptake (mmol/g)
3.05527	0.133879
4.82992	0.302893
6.80175	0.436696
10.4496	0.633879
12.2243	0.683175
14.6891	0.859231
17.5482	0.873316
20.8018	1.11275
23.0694	1.18317
28.7877	1.35923
32.4356	1.59867
36.4778	1.78177
40.7172	1.87332
44.5623	1.98599
50.4778	2.19726
55.2102	2.50008
59.4496	2.69022
64.5764	2.85923
69.8018	3.07754
