Adsorption isotherm of Hydrogen on Zeolite KA
DOI: 10.1360/cjcp2006.19(5).457.6
Adsorbate Hydrogen: InChIKey UFHFLCQGNIYNRP-UHFFFAOYSA-N
Temperature: 77 K
Tabular data in the source: 0
pressure (bar)	uptake (mmol/g)
1.06162	0.172714
2.8636	0.292846
5.26624	0.292846
7.96921	0.312868
10.8724	0.372934
13.1749	0.392956
17.0792	0.372934
20.2827	0.312868
24.4874	0.33289
29.1925	0.312868
33.1969	0.33289
38.1023	0.33289
42.8075	0.33289
