Adsorption isotherm of Hydrogen on Zeolite Na-A
DOI: 10.1360/cjcp2006.19(5).457.6
Adsorbate Hydrogen: InChIKey UFHFLCQGNIYNRP-UHFFFAOYSA-N
Temperature: 195 K
Tabular data in the source: 0
pressure (bar)	uptake (mmol/g)
26.8158	0.908527
33.0271	1.07754
36.5764	1.19726
41.6046	1.32402
45.5482	1.47895
51.6609	1.69726
57.9708	1.86627
63.1961	2.0212
69.013	2.2043
