Adsorption isotherm of Hydrogen on Zeolite 13X
DOI: 10.1360/cjcp2006.19(5).457.6
Adsorbate Hydrogen: InChIKey UFHFLCQGNIYNRP-UHFFFAOYSA-N
Temperature: 77 K
Tabular data in the source: 0
pressure (bar)	uptake (mmol/g)
0.961513	4.53751
3.56437	7.20044
6.36745	9.2627
9.17053	10.8044
12.8746	11.5853
16.879	12.1859
20.3829	12.5864
24.4874	12.7265
32.9967	12.9468
38.703	13.0469
46.7118	12.9267
56.022	12.8266
61.3279	12.8066
67.6348	12.6464
72.0396	12.4862
