Adsorption isotherm of Hydrogen on Zeolite Na-A
DOI: 10.1360/cjcp2006.19(5).457.6
Adsorbate Hydrogen: InChIKey UFHFLCQGNIYNRP-UHFFFAOYSA-N
Temperature: 77 K
Tabular data in the source: 0
pressure (bar)	uptake (mmol/g)
0.360853	1.69439
1.46206	3.99692
4.16503	5.81892
7.06822	6.82002
9.97141	7.36061
13.6755	7.70099
17.1793	7.76105
20.3829	7.92123
29.0924	8.10143
37.802	8.20154
47.1122	8.24158
56.1221	8.38173
60.7272	8.20154
67.5347	8.04136
72.4401	7.76105
