Adsorption isotherm of Hydrogen on ZSM-5
DOI: 10.1360/cjcp2006.19(5).457.6
Adsorbate Hydrogen: InChIKey UFHFLCQGNIYNRP-UHFFFAOYSA-N
Temperature: 293 K
Tabular data in the source: 0
pressure (bar)	uptake (mmol/g)
6.60457	0.190217
10.1539	0.274724
14.8863	0.401485
20.3088	0.54233
26.9144	0.753597
30.5623	0.859231
36.7736	1.03529
43.5764	1.2043
47.7172	1.33106
54.8158	1.5212
56.6891	1.58458
61.1257	1.71134
65.1679	1.8381
68.9144	1.92261
