Adsorption isotherm of Hydrogen on ZSM-5
DOI: 10.1360/cjcp2006.19(5).457.6
Adsorbate Hydrogen: InChIKey UFHFLCQGNIYNRP-UHFFFAOYSA-N
Temperature: 195 K
Tabular data in the source: 0
pressure (bar)	uptake (mmol/g)
7.29471	0.345147
14.4919	0.767682
16.8581	0.866273
18.337	0.8874
29.7736	1.67613
32.4356	1.78881
37.5623	1.99303
40.2243	2.12684
43.7736	2.27472
47.7172	2.40853
52.0553	2.52825
54.6187	2.69726
58.3651	2.92261
67.2384	3.28881
