Adsorption isotherm of Hydrogen on Zeolite CaA
DOI: 10.1360/cjcp2006.19(5).457.6
Adsorbate Hydrogen: InChIKey UFHFLCQGNIYNRP-UHFFFAOYSA-N
Temperature: 293 K
Tabular data in the source: 0
pressure (bar)	uptake (mmol/g)
8.47781	0.239513
14.9848	0.3874
20.013	0.528245
22.9708	0.584583
26.8158	0.66909
29.7736	0.711344
34.013	0.816978
40.4215	0.957823
49.1961	1.12684
58.1679	1.33106
62.9989	1.40148
68.8158	1.53529
