Adsorption isotherm of Hydrogen on Zeolite 13X
DOI: 10.1360/cjcp2006.19(5).457.6
Adsorbate Hydrogen: InChIKey UFHFLCQGNIYNRP-UHFFFAOYSA-N
Temperature: 293 K
Tabular data in the source: 0
pressure (bar)	uptake (mmol/g)
9.06936	0.32402
13.7032	0.493034
15.7736	0.577541
20.6046	0.718386
25.8299	0.859231
28.6891	0.943738
31.1539	1.02825
36.2806	1.16205
41.6046	1.30994
46.8299	1.46486
56.9848	1.71839
62.8018	1.86627
67.337	1.99303
