Adsorption isotherm of Hydrogen on Zeolite CaA
DOI: 10.1360/cjcp2006.19(5).457.6
Adsorbate Hydrogen: InChIKey UFHFLCQGNIYNRP-UHFFFAOYSA-N
Temperature: 77 K
Tabular data in the source: 0
pressure (bar)	uptake (mmol/g)
1.66228	2.97579
3.8647	5.03806
6.76789	6.96017
13.0748	7.74103
16.879	8.00132
20.0825	8.28162
24.4874	8.52189
28.8922	8.622
37.2013	8.8022
42.3069	8.86226
51.3168	8.86226
56.022	8.78218
61.428	8.60198
67.7349	8.30165
