Adsorption isotherm of Carbonyl sulfide on Zeolite 4A
DOI: 10.1007/s10450-016-9841-6
Article source: Table 7
Adsorbate Carbonyl sulfide: InChIKey JJWKPURADFRFRB-UHFFFAOYSA-N
Kind: experiment
Isotherm type: absolute
Temperature: 298 K
Tabular data in the source: 0
pressure (bar)	uptake (mmol/g)
0	0
0.0598	0.508
0.087	0.7392
0.1191	0.9528
0.1528	1.1514
0.1851	1.3374
0.2197	1.5094
0.2571	1.668
0.2945	1.8153
0.3368	1.9493
0.3773	2.0835
0.5125	2.2735
0.6452	2.4433
0.7814	2.5908
0.9299	2.7127
1.0877	2.8112
1.2558	2.8868
1.4283	2.9436
1.6028	2.984
1.7789	3.0092
1.9549	3.0275
2.421	3.0611
2.847	3.0844
3.2371	3.0982
3.5906	3.1059
