Adsorption isotherm of Hydrogen sulfide on Zeolite 4A
DOI: 10.1007/s10450-016-9841-6
Article source: Table 8
Adsorbate Hydrogen sulfide: InChIKey RWSOTUBLDIXVET-UHFFFAOYSA-N
Kind: experiment
Isotherm type: excess
Temperature: 298 K
Tabular data in the source: 0
pressure (bar)	uptake (mmol/g)
0	0
0.1064	3.435
0.156	3.9067
0.2663	4.3138
0.5122	4.6141
0.909	4.7964
1.3823	4.8997
1.8682	4.9598
2.331	4.9986
2.7679	5.0205
3.1727	5.0468
3.8386	5.0531
4.4303	5.0576
4.965	5.0553
5.4438	5.0495
5.8767	5.0386
6.267	5.024
