Adsorption isotherm of Hydrogen sulfide on Zeolite 4A
DOI: 10.1007/s10450-016-9841-6
Article source: Table 8
Adsorbate Hydrogen sulfide: InChIKey RWSOTUBLDIXVET-UHFFFAOYSA-N
Kind: experiment
Isotherm type: absolute
Temperature: 323 K
Tabular data in the source: 0
pressure (bar)	uptake (mmol/g)
0	0
0.0607	3.1494
0.0796	3.24
0.0995	3.3244
0.1214	3.4024
0.1433	3.4752
0.1648	3.5434
0.1875	3.6063
0.2127	3.6636
0.24	3.7192
0.4681	4.0521
0.8221	4.2925
1.2691	4.4547
1.757	4.5633
2.2456	4.6391
2.714	4.694
3.1558	4.7336
3.5676	4.7619
3.9461	4.7827
4.2939	4.7971
4.6147	4.805
4.9125	4.8063
5.1797	4.8064
