Adsorption isotherm of Carbonyl sulfide on Zeolite 4A
DOI: 10.1007/s10450-016-9841-6
Article source: Table 7
Adsorbate Carbonyl sulfide: InChIKey JJWKPURADFRFRB-UHFFFAOYSA-N
Kind: experiment
Isotherm type: excess
Temperature: 323 K
Tabular data in the source: 0
pressure (bar)	uptake (mmol/g)
0	0
0.0513	0.2428
0.1021	0.47
0.1545	0.6813
0.2143	0.8747
0.2741	1.0544
0.3295	1.2233
0.3859	1.3794
0.4472	1.5214
0.5085	1.6523
0.5706	1.7724
0.6321	1.8828
0.6932	1.984
0.7539	2.0766
0.8147	2.1607
0.8767	2.2362
0.9397	2.3037
1.0007	2.3651
1.0612	2.42
1.1217	2.4684
1.1845	2.5098
1.2508	2.5436
1.3123	2.5744
1.5944	2.7122
1.8966	2.7578
2.1829	2.792
2.4522	2.8168
2.7047	2.8336
2.9379	2.8451
3.1536	2.8516
3.351	2.8551
3.5304	2.8564
3.6945	2.8551
3.8428	2.8526
3.9746	2.8502
4.0933	2.8469
