Adsorption isotherm of Carbon Dioxide on Zeolite 4A
DOI: 10.1007/s10450-016-9841-6
Article source: Table 6
Adsorbate Carbon Dioxide: InChIKey CURLTUGMZLYLDI-UHFFFAOYSA-N
Kind: experiment
Isotherm type: absolute
Temperature: 323 K
Tabular data in the source: 0
pressure (bar)	uptake (mmol/g)
0	0
0.2141	3.1524
1.0682	3.8141
2.1916	4.0901
3.3186	4.2645
4.4188	4.3755
5.4671	4.4564
6.4542	4.5231
7.3863	4.5741
8.2625	4.6155
9.0862	4.6485
9.8573	4.6782
10.5759	4.708
11.2526	4.7304
11.8918	4.743
12.4813	4.7644
13.0427	4.7731
13.5651	4.7838
14.0501	4.7977
14.5115	4.8003
14.9335	4.8141
15.3319	4.8222
15.7133	4.8181
16.0637	4.8219
16.3828	4.8351
16.6911	4.8354
16.9849	4.8278
17.2378	4.848
17.4889	4.8482
17.7218	4.8509
17.9353	4.8585
20.5753	4.8617
22.178	4.864
23.6482	4.8792
25.0164	4.88
26.2805	4.8817
27.4503	4.8829
28.5315	4.8861
29.5399	4.8799
30.4689	4.881
31.3396	4.8692
32.1377	4.8734
32.8828	4.8698
33.5676	4.8786
34.213	4.8744
34.816	4.8651
35.3695	4.8672
35.8861	4.8669
36.3663	4.8686
36.8135	4.8679
38.1274	4.8673
38.9459	4.8631
39.6994	4.8702
40.4089	4.8587
