Adsorption isotherm of Carbon Dioxide on Zeolite 4A
DOI: 10.1007/s10450-016-9841-6
Article source: Table 6
Adsorbate Carbon Dioxide: InChIKey CURLTUGMZLYLDI-UHFFFAOYSA-N
Kind: experiment
Isotherm type: absolute
Temperature: 273 K
Tabular data in the source: 0
pressure (bar)	uptake (mmol/g)
0	0
0.0274	3.3564
0.1455	3.9745
0.3902	4.396
0.7214	4.6682
1.0933	4.8483
1.473	4.9782
1.8409	5.0843
2.1999	5.1647
2.5292	5.2491
2.8614	5.2962
3.1642	5.3507
3.4553	5.3914
3.7324	5.4228
3.9881	5.4568
4.2258	5.4906
4.4491	5.5207
4.6664	5.5377
4.8645	5.5601
5.0525	5.5775
5.2286	5.5938
5.3936	5.6087
5.5424	5.6383
5.8941	5.6935
6.2468	5.7112
6.5675	5.739
6.8752	5.7534
7.1526	5.7809
7.4229	5.7908
7.6653	5.8135
7.8941	5.8315
8.1166	5.8358
8.3198	5.8462
8.5289	5.8281
8.7101	5.8309
8.8743	5.8409
9.03	5.8467
9.173	5.8556
9.3033	5.8697
9.4309	5.8742
9.548	5.8817
9.6583	5.8877
10.6985	5.9391
11.3147	5.9626
11.8926	5.9732
12.4268	5.9863
12.9189	6.0036
13.3787	6.0151
13.7956	6.042
14.1998	6.0408
14.5625	6.0602
14.9091	6.0638
15.2281	6.0717
15.5322	6.0683
15.8042	6.0828
16.0628	6.0879
16.299	6.1006
16.5294	6.0952
16.7349	6.1059
16.9321	6.1063
17.107	6.1219
17.2785	6.1228
17.4444	6.1135
17.5858	6.1265
17.719	6.138
17.854	6.1303
17.9737	6.1343
18.0852	6.1389
18.1848	6.1505
18.2825	6.1541
18.374	6.1563
18.4622	6.1546
18.541	6.1593
18.6114	6.1691
18.6849	6.1646
18.7546	6.1587
18.8105	6.1713
18.8709	6.1668
18.9251	6.168
18.967	6.1843
19.0223	6.1706
