Adsorption isotherm of Methane on Zeolite 4A
DOI: 10.1007/s10450-016-9841-6
Article source: Table 9
Adsorbate Methane: InChIKey VNWKTOKETHGBQD-UHFFFAOYSA-N
Kind: experiment
Isotherm type: excess
Temperature: 298 K
Tabular data in the source: 0
pressure (bar)	uptake (mmol/g)
0	0
0.1525	0.2561
0.3096	0.5081
0.4777	0.7509
0.658	0.9834
0.8525	1.2041
1.0629	1.4117
1.2915	1.6043
1.5389	1.7813
1.8057	1.9422
2.0907	2.0877
2.3933	2.2183
2.7113	2.3356
3.0433	2.4406
3.3871	2.5349
3.7416	2.6196
4.1046	2.6963
4.4753	2.7657
4.8518	2.8292
5.2343	2.8871
5.6211	2.9405
6.0111	2.9905
6.4049	3.0362
7.1619	3.0979
7.9196	3.1578
8.6885	3.2106
9.4649	3.2579
10.2447	3.3011
11.0306	3.339
11.8188	3.3733
12.6082	3.4043
13.398	3.4323
14.1867	3.458
14.9745	3.4813
15.7601	3.5027
16.5428	3.5226
17.3232	3.5408
18.1001	3.5576
18.874	3.573
19.6444	3.5872
20.4111	3.6004
21.1742	3.6124
21.9358	3.6225
22.6969	3.6303
23.4483	3.6397
24.1945	3.6489
24.9369	3.6572
25.6734	3.6656
26.4172	3.6679
27.1288	3.6815
27.8471	3.6895
28.5622	3.6963
29.2739	3.702
29.9803	3.7075
30.6822	3.7124
31.379	3.7171
32.0716	3.7211
32.7594	3.7248
33.4419	3.7285
34.1202	3.7316
34.7941	3.7343
35.4628	3.737
36.1272	3.7393
36.7857	3.7418
37.4401	3.7439
38.0904	3.7455
38.7361	3.7469
39.3773	3.7481
40.0136	3.7493
40.6448	3.7506
41.2732	3.751
41.8948	3.7523
42.5142	3.7524
43.1288	3.7526
43.7386	3.7528
44.3441	3.7529
44.9451	3.753
45.5424	3.7527
46.1353	3.7524
46.7248	3.7517
47.3089	3.7515
47.8894	3.7509
48.4662	3.75
49.0383	3.7495
49.6077	3.7482
50.1731	3.7469
50.7335	3.746
51.2914	3.7445
51.8453	3.7429
52.3953	3.7414
52.9408	3.7402
53.4825	3.7389
54.0205	3.7376
54.5547	3.7364
55.0854	3.735
55.613	3.7333
56.1369	3.7315
56.6568	3.7299
57.1734	3.7281
57.6868	3.7262
58.1975	3.7238
58.7037	3.7219
59.2079	3.7193
59.7076	3.7172
60.2044	3.7149
60.696	3.7135
61.1873	3.7106
61.6746	3.7081
62.1579	3.706
62.6397	3.7029
63.1172	3.7005
63.5907	3.6986
64.0622	3.696
64.5302	3.6937
