Adsorption isotherm of Methane on Zeolite 4A
DOI: 10.1007/s10450-016-9841-6
Article source: Table 9
Adsorbate Methane: InChIKey VNWKTOKETHGBQD-UHFFFAOYSA-N
Kind: experiment
Isotherm type: excess
Temperature: 323 K
Tabular data in the source: 0
pressure (bar)	uptake (mmol/g)
0	0
0.2073	0.1007
0.417	0.1985
0.629	0.2937
0.843	0.3859
1.0595	0.4753
1.2789	0.5623
1.5019	0.6463
1.7278	0.7281
1.9568	0.8074
2.1891	0.8841
2.4249	0.9582
2.6634	1.0302
2.905	1.0997
3.1505	1.1666
3.3987	1.2318
3.6508	1.2946
4.0979	1.3788
4.5339	1.4662
4.9809	1.5492
5.4331	1.6296
5.8967	1.705
6.3725	1.7753
6.8591	1.841
7.3547	1.9028
7.8587	1.961
8.372	2.0151
8.8912	2.0663
9.4166	2.1146
9.9475	2.16
10.4885	2.2012
11.0348	2.2401
11.5809	2.2782
12.1316	2.3138
12.6873	2.347
13.2431	2.3792
13.7964	2.4111
14.3524	2.4405
14.9103	2.468
15.468	2.4944
16.0296	2.5184
16.5915	2.5413
17.1532	2.5632
17.7163	2.5835
18.275	2.6042
18.8374	2.6226
19.4016	2.6396
19.9724	2.6535
20.5311	2.6705
21.0969	2.684
21.6573	2.6982
22.2133	2.7148
22.7685	2.731
23.327	2.7449
23.8892	2.7567
24.4451	2.7697
25.0034	2.781
25.5598	2.7919
26.1151	2.8023
26.6665	2.8129
27.2132	2.8241
27.7638	2.8329
28.3092	2.8424
28.8525	2.8515
29.3961	2.8595
29.9348	2.8681
30.472	2.8762
31.0107	2.8826
31.5443	2.8899
32.0755	2.8971
32.6067	2.9033
33.1337	2.91
33.6582	2.9164
34.1815	2.9223
34.7026	2.9278
35.2191	2.9338
35.7361	2.9385
36.2467	2.9443
36.7555	2.9497
37.2641	2.954
37.7678	2.9588
38.2701	2.963
38.7801	2.9636
39.2763	2.968
39.7724	2.9715
40.2629	2.976
40.7561	2.9786
41.2407	2.9833
41.7224	2.9882
42.2065	2.9912
42.6876	2.9943
43.1681	2.9968
43.6409	3.0009
44.11	3.0052
44.582	3.0075
45.0612	3.0065
45.5251	3.01
45.9938	3.0106
46.4545	3.0112
46.8997	3.0165
47.3406	3.0227
47.7842	3.0271
48.2406	3.0261
48.6844	3.029
49.1258	3.0318
49.5688	3.0332
50.0081	3.0349
50.4418	3.0378
50.872	3.0412
51.3078	3.0418
51.7431	3.0419
52.1848	3.0384
52.6053	3.0415
53.0301	3.0423
53.4566	3.0418
53.871	3.0452
54.3028	3.0425
54.7199	3.0437
55.1212	3.0503
55.5247	3.0555
55.9323	3.0585
56.3514	3.0567
56.759	3.0583
57.1615	3.0612
57.5616	3.0641
57.961	3.0667
58.37	3.0649
58.7686	3.0664
59.1597	3.07
59.5538	3.0717
59.9403	3.0756
60.3337	3.0761
60.7316	3.0742
61.1411	3.0671
61.5213	3.0707
61.9153	3.0687
62.3068	3.067
62.682	3.0704
63.061	3.0715
63.4399	3.0719
63.8168	3.0698
64.1827	3.0716
64.5398	3.0764
64.9005	3.0792
65.2649	3.0802
65.6274	3.0813
65.9877	3.0827
66.3427	3.0855
66.6957	3.0884
67.0524	3.0893
67.4174	3.0864
67.7657	3.0892
68.1166	3.0904
68.4717	3.0893
68.8163	3.0916
69.1581	3.0943
