Adsorption isotherm of Hydrogen sulfide on Zeolite 4A
DOI: 10.1007/s10450-016-9841-6
Article source: Table 8
Adsorbate Hydrogen sulfide: InChIKey RWSOTUBLDIXVET-UHFFFAOYSA-N
Kind: experiment
Isotherm type: excess
Temperature: 273 K
Tabular data in the source: 0
pressure (bar)	uptake (mmol/g)
0	0
0.0533	3.9896
0.0585	4.1228
0.0682	4.245
0.0828	4.3564
0.1034	4.4566
0.1309	4.5452
0.1652	4.6227
0.2059	4.6895
0.2529	4.7457
0.3042	4.793
0.3591	4.8319
0.4156	4.8639
0.4993	4.9328
0.7688	5.0028
1.0281	5.0564
1.2773	5.095
1.5127	5.1224
1.7303	5.1427
1.9316	5.1566
2.1175	5.165
2.284	5.1718
2.4363	5.1752
2.5756	5.1756
2.7006	5.1748
2.8129	5.173
2.9149	5.1693
3.0069	5.1647
