Adsorption isotherm of Carbon Dioxide on Zeolite 4A
DOI: 10.1007/s10450-016-9841-6
Article source: Table 6
Adsorbate Carbon Dioxide: InChIKey CURLTUGMZLYLDI-UHFFFAOYSA-N
Kind: experiment
Isotherm type: excess
Temperature: 298 K
Tabular data in the source: 0
pressure (bar)	uptake (mmol/g)
0	0
0.1819	3.5531
0.3016	3.7492
0.4437	3.9017
0.5944	4.0273
0.7542	4.1254
0.9175	4.2032
1.0784	4.2681
1.2323	4.3265
1.3904	4.3654
1.5274	4.4163
1.6705	4.4468
1.8045	4.4761
1.9277	4.507
2.0492	4.5289
2.1568	4.5577
2.2594	4.5832
2.3608	4.6009
2.4624	4.6096
2.5424	4.6368
2.6375	4.6381
2.7159	4.6522
2.7893	4.6661
2.8562	4.6815
2.928	4.6851
2.9859	4.7001
3.0462	4.7071
3.0986	4.7187
3.1572	4.7182
3.2063	4.7248
3.2476	4.7371
3.2901	4.7462
3.7444	4.7872
4.1701	4.8238
4.5704	4.855
4.9467	4.8816
5.3203	4.8784
5.6522	4.8969
5.9633	4.9129
6.2597	4.9206
6.529	4.9375
6.7882	4.9442
7.0255	4.9568
7.2595	4.9529
7.4651	4.9661
7.6653	4.9684
7.8456	4.9794
8.0186	4.9845
8.18	4.9896
8.3309	4.9948
8.4718	4.9999
8.6033	5.0051
8.7352	4.9984
8.8429	5.0129
8.9551	5.0114
9.0605	5.0094
9.1531	5.0153
9.2476	5.011
9.3249	5.0215
9.4092	5.0153
9.4819	5.0178
9.5446	5.0276
9.6095	5.0287
9.6749	5.0235
9.7282	5.0292
9.7758	5.0379
9.8282	5.0358
9.878	5.0326
9.9189	5.0371
10.0038	5.031
11.414	5.0526
12.5098	5.0591
13.5327	5.0514
14.4776	5.046
15.3572	5.0337
16.1648	5.0331
16.9125	5.0332
17.6192	5.0141
18.2719	5.0008
18.8704	4.9994
19.4326	4.9883
19.9497	4.9859
20.4378	4.973
20.8904	4.9629
21.3002	4.9712
21.6887	4.968
22.0557	4.9574
22.395	4.951
22.7089	4.9488
23.0036	4.9433
23.2858	4.9261
24.001	4.9163
24.2011	4.9251
24.3903	4.9306
24.5801	4.9134
24.7466	4.915
24.9077	4.9079
25.0542	4.9062
25.1906	4.9069
25.3197	4.9048
25.4365	4.9092
25.5554	4.8973
25.6562	4.9024
25.7557	4.8997
25.8488	4.897
25.9363	4.8929
26.011	4.9019
26.0886	4.8975
26.1574	4.8995
26.2214	4.9022
26.2824	4.9034
26.34	4.9027
26.3987	4.8953
26.4419	4.9069
26.4928	4.9002
26.5355	4.9029
26.5764	4.9041
26.6114	4.911
26.6537	4.9027
27.7826	4.862
28.808	4.845
29.7688	4.7985
30.6386	4.7796
31.4454	4.7539
32.1947	4.7199
32.8807	4.6986
33.5214	4.6663
34.1035	4.655
34.6451	4.638
35.1496	4.6171
35.6128	4.6058
36.0464	4.586
36.4522	4.5629
36.8197	4.5565
37.1642	4.5461
37.4841	4.5366
37.7834	4.5218
38.0629	4.5074
38.3234	4.4926
38.5567	4.4978
38.7808	4.4876
38.9924	4.4728
39.1777	4.4841
39.3623	4.4665
39.5302	4.4632
39.6885	4.4509
39.8304	4.4535
39.9574	4.4648
40.0869	4.4548
