Adsorption isotherm of Carbon Dioxide on Zeolite 4A
DOI: 10.1007/s10450-016-9841-6
Article source: Table 6
Adsorbate Carbon Dioxide: InChIKey CURLTUGMZLYLDI-UHFFFAOYSA-N
Kind: experiment
Isotherm type: excess
Temperature: 273 K
Tabular data in the source: 0
pressure (bar)	uptake (mmol/g)
0	0
0.0274	3.3558
0.1455	3.971
0.3902	4.3867
0.7214	4.651
1.0933	4.8222
1.473	4.9429
1.8409	5.0401
2.1999	5.1117
2.5292	5.188
2.8614	5.2269
3.1642	5.2739
3.4553	5.3074
3.7324	5.3319
3.9881	5.3596
4.2258	5.3873
4.4491	5.4118
4.6664	5.4233
4.8645	5.4407
5.0525	5.4533
5.2286	5.4651
5.3936	5.4758
5.5424	5.5016
5.8941	5.5477
6.2468	5.5563
6.5675	5.5758
6.8752	5.5821
7.1526	5.6023
7.4229	5.6051
7.6653	5.6213
7.8941	5.6333
8.1166	5.6317
8.3198	5.6367
8.5289	5.6129
8.7101	5.6109
8.8743	5.6164
9.03	5.618
9.173	5.623
9.3033	5.6335
9.4309	5.6346
9.548	5.6389
9.6583	5.6419
10.6985	5.6645
11.3147	5.6707
11.8926	5.665
12.4268	5.6629
12.9189	5.6658
13.3787	5.664
13.7956	5.6786
14.1998	5.6654
14.5625	5.674
14.9091	5.6672
15.2281	5.6655
15.5322	5.6528
15.8042	5.659
16.0628	5.6561
16.299	5.6615
16.5294	5.649
16.7349	5.6533
16.9321	5.6475
17.107	5.6575
17.2785	5.6531
17.4444	5.6385
17.5858	5.647
17.719	5.6543
17.854	5.6422
17.9737	5.6424
18.0852	5.6434
18.1848	5.6518
18.2825	5.6523
18.374	5.6515
18.4622	5.6469
18.541	5.6491
18.6114	5.6566
18.6849	5.6497
18.7546	5.6415
18.8105	5.6523
18.8709	5.6458
18.9251	5.6452
18.967	5.6601
19.0223	5.6446
