Adsorption isotherm of Methane on Zeolite 4A
DOI: 10.1007/s10450-016-9841-6
Article source: Table 9
Adsorbate Methane: InChIKey VNWKTOKETHGBQD-UHFFFAOYSA-N
Kind: experiment
Isotherm type: absolute
Temperature: 323 K
Tabular data in the source: 0
pressure (bar)	uptake (mmol/g)
0	0
0.2073	0.1051
0.417	0.2073
0.629	0.307
0.843	0.4038
1.0595	0.4978
1.2789	0.5894
1.5019	0.6782
1.7278	0.7648
1.9568	0.849
2.1891	0.9307
2.4249	1.0098
2.6634	1.0868
2.905	1.1615
3.1505	1.2337
3.3987	1.3041
3.6508	1.3724
4.0979	1.4657
4.5339	1.562
4.9809	1.6541
5.4331	1.7438
5.8967	1.8285
6.3725	1.9086
6.8591	1.9843
7.3547	2.0563
7.8587	2.1248
8.372	2.1895
8.8912	2.2515
9.4166	2.3106
9.9475	2.3669
10.4885	2.4194
11.0348	2.4696
11.5809	2.519
12.1316	2.5661
12.6873	2.6108
13.2431	2.6547
13.7964	2.6981
14.3524	2.7391
14.9103	2.7783
15.468	2.8164
16.0296	2.8522
16.5915	2.8868
17.1532	2.9206
17.7163	2.9528
18.275	2.9853
18.8374	3.0155
19.4016	3.0445
19.9724	3.0704
20.5311	3.0993
21.0969	3.1248
21.6573	3.1509
22.2133	3.1794
22.7685	3.2074
23.327	3.2333
23.8892	3.2571
24.4451	3.282
25.0034	3.3052
25.5598	3.3281
26.1151	3.3504
26.6665	3.3729
27.2132	3.3959
27.7638	3.4165
28.3092	3.4378
28.8525	3.4587
29.3961	3.4785
29.9348	3.4988
30.472	3.5185
31.0107	3.5367
31.5443	3.5556
32.0755	3.5743
32.6067	3.5921
33.1337	3.6103
33.6582	3.6282
34.1815	3.6456
34.7026	3.6625
35.2191	3.6798
35.7361	3.6959
36.2467	3.713
36.7555	3.7295
37.2641	3.745
37.7678	3.761
38.2701	3.7763
38.7801	3.7882
39.2763	3.8035
39.7724	3.8181
40.2629	3.8335
40.7561	3.847
41.2407	3.8625
41.7224	3.8781
42.2065	3.8919
42.6876	3.9058
43.1681	3.9189
43.6409	3.9336
44.11	3.9484
44.582	3.9613
45.0612	3.971
45.5251	3.985
45.9938	3.996
46.4545	4.007
46.8997	4.0223
47.3406	4.0384
47.7842	4.0528
48.2406	4.0622
48.6844	4.0751
49.1258	4.0879
49.5688	4.0993
50.0081	4.111
50.4418	4.1237
50.872	4.1369
51.3078	4.1474
51.7431	4.1573
52.1848	4.1638
52.6053	4.1766
53.0301	4.1871
53.4566	4.1963
53.871	4.2091
54.3028	4.2162
54.7199	4.227
55.1212	4.2428
55.5247	4.2572
55.9323	4.2695
56.3514	4.2773
56.759	4.2883
57.1615	4.3004
57.5616	4.3125
57.961	4.3243
58.37	4.332
58.7686	4.3426
59.1597	4.3552
59.5538	4.366
59.9403	4.3788
60.3337	4.3884
60.7316	4.3957
61.1411	4.3981
61.5213	4.4104
61.9153	4.4176
62.3068	4.4249
62.682	4.437
63.061	4.4469
63.4399	4.4562
63.8168	4.4628
64.1827	4.4731
64.5398	4.4861
64.9005	4.4974
65.2649	4.5068
65.6274	4.5164
65.9877	4.5262
66.3427	4.5373
66.6957	4.5485
67.0524	4.5577
67.4174	4.5633
67.7657	4.5743
68.1166	4.5836
68.4717	4.5908
68.8163	4.6012
69.1581	4.6119
