Adsorption isotherm of Carbonyl sulfide on Zeolite 4A
DOI: 10.1007/s10450-016-9841-6
Article source: Table 7
Adsorbate Carbonyl sulfide: InChIKey JJWKPURADFRFRB-UHFFFAOYSA-N
Kind: experiment
Isotherm type: excess
Temperature: 298 K
Tabular data in the source: 0
pressure (bar)	uptake (mmol/g)
0	0
0.0598	0.5069
0.087	0.7375
0.1191	0.9505
0.1528	1.1485
0.1851	1.3338
0.2197	1.5052
0.2571	1.663
0.2945	1.8096
0.3368	1.9428
0.3773	2.0762
0.5125	2.2636
0.6452	2.4307
0.7814	2.5757
0.9299	2.6946
1.0877	2.79
1.2558	2.8623
1.4283	2.9157
1.6028	2.9526
1.7789	2.9742
1.9549	2.989
2.421	3.0132
2.847	3.0277
3.2371	3.0335
3.5906	3.0338
