Adsorption isotherm of Carbon Dioxide on Zeolite 4A
DOI: 10.1007/s10450-016-9841-6
Article source: Table 6
Adsorbate Carbon Dioxide: InChIKey CURLTUGMZLYLDI-UHFFFAOYSA-N
Kind: experiment
Isotherm type: absolute
Temperature: 298 K
Tabular data in the source: 0
pressure (bar)	uptake (mmol/g)
0	0
0.1819	3.557
0.3016	3.7558
0.4437	3.9114
0.5944	4.0403
0.7542	4.1418
0.9175	4.2232
1.0784	4.2917
1.2323	4.3534
1.3904	4.3958
1.5274	4.4497
1.6705	4.4835
1.8045	4.5157
1.9277	4.5493
2.0492	4.574
2.1568	4.6051
2.2594	4.6329
2.3608	4.6529
2.4624	4.6638
2.5424	4.6928
2.6375	4.6962
2.7159	4.7121
2.7893	4.7276
2.8562	4.7445
2.928	4.7497
2.9859	4.766
3.0462	4.7743
3.0986	4.7872
3.1572	4.788
3.2063	4.7957
3.2476	4.8089
3.2901	4.8189
3.7444	4.8702
4.1701	4.9164
4.5704	4.9567
4.9467	4.9919
5.3203	4.9973
5.6522	5.0234
5.9633	5.0466
6.2597	5.0612
6.529	5.0844
6.7882	5.0971
7.0255	5.1152
7.2595	5.1168
7.4651	5.1349
7.6653	5.1419
7.8456	5.1571
8.0186	5.1663
8.18	5.1752
8.3309	5.184
8.4718	5.1924
8.6033	5.2008
8.7352	5.1972
8.8429	5.2143
8.9551	5.2155
9.0605	5.216
9.1531	5.2241
9.2476	5.2221
9.3249	5.2344
9.4092	5.2303
9.4819	5.2345
9.5446	5.2458
9.6095	5.2485
9.6749	5.2449
9.7282	5.2518
9.7758	5.2617
9.8282	5.2609
9.878	5.2589
9.9189	5.2644
10.0038	5.2603
11.414	5.3164
12.5098	5.35
13.5327	5.368
14.4776	5.3867
15.3572	5.397
16.1648	5.4173
16.9125	5.4371
17.6192	5.4368
18.2719	5.4409
18.8704	5.4557
19.4326	5.4598
19.9497	5.4716
20.4378	5.4722
20.8904	5.4747
21.3002	5.4945
21.6887	5.5022
22.0557	5.502
22.395	5.5052
22.7089	5.512
23.0036	5.515
23.2858	5.506
24.001	5.517
24.2011	5.5316
24.3903	5.5427
24.5801	5.5311
24.7466	5.5376
24.9077	5.5353
25.0542	5.5379
25.1906	5.5427
25.3197	5.5444
25.4365	5.5523
25.5554	5.5439
25.6562	5.5521
25.7557	5.5524
25.8488	5.5525
25.9363	5.551
26.011	5.5623
26.0886	5.5602
26.1574	5.5643
26.2214	5.569
26.2824	5.572
26.34	5.5731
26.3987	5.5674
26.4419	5.5804
26.4928	5.5752
26.5355	5.5792
26.5764	5.5816
26.6114	5.5896
26.6537	5.5826
27.7826	5.5767
28.808	5.5918
29.7688	5.576
30.6386	5.5853
31.4454	5.5862
32.1947	5.5773
32.8807	5.5793
33.5214	5.5691
34.1035	5.578
34.6451	5.5801
35.1496	5.5771
35.6128	5.5824
36.0464	5.5784
36.4522	5.5702
36.8197	5.5773
37.1642	5.5797
37.4841	5.5823
37.7834	5.5788
38.0629	5.575
38.3234	5.5702
38.5567	5.5844
38.7808	5.5828
38.9924	5.5763
39.1777	5.5949
39.3623	5.5846
39.5302	5.5878
39.6885	5.5819
39.8304	5.59
39.9574	5.6065
40.0869	5.6016
