Adsorption isotherm of Carbon Dioxide on Zeolite 4A
DOI: 10.1007/s10450-016-9841-6
Article source: Table 6
Adsorbate Carbon Dioxide: InChIKey CURLTUGMZLYLDI-UHFFFAOYSA-N
Kind: experiment
Isotherm type: excess
Temperature: 323 K
Tabular data in the source: 0
pressure (bar)	uptake (mmol/g)
0	0
0.2141	3.1481
1.0682	3.7926
2.1916	4.0457
3.3186	4.197
4.4188	4.2853
5.4671	4.3444
6.4542	4.3903
7.3863	4.4216
8.2625	4.4442
9.0862	4.4595
9.8573	4.4725
10.5759	4.4867
11.2526	4.4942
11.8918	4.4928
12.4813	4.5011
13.0427	4.4974
13.5651	4.4964
14.0501	4.4994
14.5115	4.4916
14.9335	4.4958
15.3319	4.4949
15.7133	4.4821
16.0637	4.4778
16.3828	4.4837
16.6911	4.4769
16.9849	4.4625
17.2378	4.4768
17.4889	4.4712
17.7218	4.4685
17.9353	4.4711
20.5753	4.412
22.178	4.3756
23.6482	4.3548
25.0164	4.3217
26.2805	4.2915
27.4503	4.263
28.5315	4.2383
29.5399	4.2057
30.4689	4.1823
31.3396	4.1474
32.1377	4.1301
32.8828	4.1063
33.5676	4.0964
34.213	4.0744
34.816	4.0484
35.3695	4.035
35.8861	4.0201
36.3663	4.0082
36.8135	3.9949
38.1274	3.9565
38.9459	3.9284
39.6994	3.9133
40.4089	3.8807
