Adsorption isotherm of Methane on Zeolite 4A
DOI: 10.1007/s10450-016-9841-6
Article source: Table 9
Adsorbate Methane: InChIKey VNWKTOKETHGBQD-UHFFFAOYSA-N
Kind: experiment
Isotherm type: absolute
Temperature: 298 K
Tabular data in the source: 0
pressure (bar)	uptake (mmol/g)
0	0
0.1525	0.262
0.3096	0.5201
0.4777	0.7693
0.658	1.0085
0.8525	1.2362
1.0629	1.4513
1.2915	1.6518
1.5389	1.8371
1.8057	2.0068
2.0907	2.1617
2.3933	2.3021
2.7113	2.4295
3.0433	2.5451
3.3871	2.6503
3.7416	2.7461
4.1046	2.8342
4.4753	2.9151
4.8518	2.9904
5.2343	3.0601
5.6211	3.1256
6.0111	3.1877
6.4049	3.2457
7.1619	3.3267
7.9196	3.4054
8.6885	3.4774
9.4649	3.5441
10.2447	3.6069
11.0306	3.6646
11.8188	3.7188
12.6082	3.7699
13.398	3.818
14.1867	3.8639
14.9745	3.9074
15.7601	3.9492
16.5428	3.9894
17.3232	4.0278
18.1001	4.0649
18.874	4.1006
19.6444	4.135
20.4111	4.1684
21.1742	4.2006
21.9358	4.231
22.6969	4.2591
23.4483	4.2887
24.1945	4.3179
24.9369	4.3463
25.6734	4.3746
26.4172	4.3972
27.1288	4.4302
27.8471	4.4579
28.5622	4.4843
29.2739	4.5096
29.9803	4.5346
30.6822	4.559
31.379	4.5832
32.0716	4.6066
32.7594	4.6296
33.4419	4.6525
34.1202	4.6748
34.7941	4.6966
35.4628	4.7183
36.1272	4.7395
36.7857	4.7609
37.4401	4.7817
38.0904	4.8021
38.7361	4.8222
39.3773	4.842
40.0136	4.8617
40.6448	4.8815
41.2732	4.9002
41.8948	4.9198
42.5142	4.9381
43.1288	4.9564
43.7386	4.9748
44.3441	4.9929
44.9451	5.0108
45.5424	5.0284
46.1353	5.0459
46.7248	5.0629
47.3089	5.0803
47.8894	5.0973
48.4662	5.1139
49.0383	5.1308
49.6077	5.1469
50.1731	5.1629
50.7335	5.1792
51.2914	5.1948
51.8453	5.2103
52.3953	5.2257
52.9408	5.2414
53.4825	5.257
54.0205	5.2725
54.5547	5.2879
55.0854	5.3032
55.613	5.318
56.1369	5.3327
56.6568	5.3475
57.1734	5.3621
57.6868	5.3764
58.1975	5.3902
58.7037	5.4044
59.2079	5.4179
59.7076	5.4318
60.2044	5.4455
60.696	5.4599
61.1873	5.4728
61.6746	5.486
62.1579	5.4995
62.6397	5.5121
63.1172	5.5252
63.5907	5.5387
64.0622	5.5515
64.5302	5.5645
