Adsorption isotherm of Hydrogen sulfide on Zeolite 4A
DOI: 10.1007/s10450-016-9841-6
Article source: Table 8
Adsorbate Hydrogen sulfide: InChIKey RWSOTUBLDIXVET-UHFFFAOYSA-N
Kind: experiment
Isotherm type: absolute
Temperature: 273 K
Tabular data in the source: 0
pressure (bar)	uptake (mmol/g)
0	0
0.0533	3.9907
0.0585	4.1241
0.0682	4.2465
0.0828	4.3581
0.1034	4.4587
0.1309	4.548
0.1652	4.6262
0.2059	4.6938
0.2529	4.7511
0.3042	4.7994
0.3591	4.8394
0.4156	4.8727
0.4993	4.9433
0.7688	5.0191
1.0281	5.0782
1.2773	5.1222
1.5127	5.1547
1.7303	5.1798
1.9316	5.198
2.1175	5.2105
2.284	5.221
2.4363	5.2278
2.5756	5.2312
2.7006	5.2332
2.8129	5.2339
2.9149	5.2325
3.0069	5.23
