Adsorption isotherm of Hydrogen sulfide on Zeolite 4A
DOI: 10.1007/s10450-016-9841-6
Article source: Table 8
Adsorbate Hydrogen sulfide: InChIKey RWSOTUBLDIXVET-UHFFFAOYSA-N
Kind: experiment
Isotherm type: absolute
Temperature: 298 K
Tabular data in the source: 0
pressure (bar)	uptake (mmol/g)
0	0
0.1064	3.4371
0.156	3.9097
0.2663	4.3189
0.5122	4.624
0.909	4.814
1.3823	4.9266
1.8682	4.9963
2.331	5.0443
2.7679	5.075
3.1727	5.1094
3.8386	5.1293
4.4303	5.146
4.965	5.1548
5.4438	5.1591
5.8767	5.1573
6.267	5.151
