Adsorption isotherm of Hydrogen sulfide on Zeolite 4A
DOI: 10.1007/s10450-016-9841-6
Article source: Table 8
Adsorbate Hydrogen sulfide: InChIKey RWSOTUBLDIXVET-UHFFFAOYSA-N
Kind: experiment
Isotherm type: excess
Temperature: 323 K
Tabular data in the source: 0
pressure (bar)	uptake (mmol/g)
0	0
0.0607	3.1484
0.0796	3.2386
0.0995	3.3226
0.1214	3.4002
0.1433	3.4727
0.1648	3.5404
0.1875	3.603
0.2127	3.6598
0.24	3.7149
0.4681	4.0438
0.8221	4.2779
1.2691	4.4319
1.757	4.5318
2.2456	4.5986
2.714	4.645
3.1558	4.6764
3.5676	4.6971
3.9461	4.7108
4.2939	4.7187
4.6147	4.7206
4.9125	4.7163
5.1797	4.7114
