Adsorption isotherm of Carbonyl sulfide on Zeolite 4A
DOI: 10.1007/s10450-016-9841-6
Article source: Table 7
Adsorbate Carbonyl sulfide: InChIKey JJWKPURADFRFRB-UHFFFAOYSA-N
Kind: experiment
Isotherm type: absolute
Temperature: 323 K
Tabular data in the source: 0
pressure (bar)	uptake (mmol/g)
0	0
0.0513	0.2437
0.1021	0.4718
0.1545	0.6841
0.2143	0.8785
0.2741	1.0593
0.3295	1.2292
0.3859	1.3862
0.4472	1.5294
0.5085	1.6614
0.5706	1.7826
0.6321	1.8941
0.6932	1.9964
0.7539	2.0901
0.8147	2.1753
0.8767	2.2519
0.9397	2.3205
1.0007	2.383
1.0612	2.439
1.1217	2.4886
1.1845	2.5311
1.2508	2.566
1.3123	2.598
1.5944	2.741
1.8966	2.7921
2.1829	2.8315
2.4522	2.8613
2.7047	2.8828
2.9379	2.8987
3.1536	2.9093
3.351	2.9164
3.5304	2.9211
3.6945	2.923
3.8428	2.9233
3.9746	2.9234
4.0933	2.9224
