Adsorption isotherm of Carbonyl sulfide on Zeolite 4A
DOI: 10.1007/s10450-016-9841-6
Article source: Table 7
Adsorbate Carbonyl sulfide: InChIKey JJWKPURADFRFRB-UHFFFAOYSA-N
Kind: experiment
Isotherm type: absolute
Temperature: 273 K
Tabular data in the source: 0
pressure (bar)	uptake (mmol/g)
0	0
0.0565	0.3342
0.0758	0.4442
0.0819	0.554
0.0864	0.6578
0.0918	0.7546
0.0997	0.8437
0.1079	0.927
0.1252	0.9994
0.1358	1.0704
0.1506	1.1341
0.1576	1.1978
0.1595	1.2601
0.1641	1.3171
0.1724	1.3682
0.1831	1.4145
0.1994	1.457
0.2493	1.5544
0.2827	1.6524
0.311	1.7453
0.3333	1.8343
0.3565	1.9159
0.3804	1.9906
0.4074	2.0575
0.4468	2.1113
0.4816	2.1621
0.5124	2.2101
0.5393	2.2556
0.5549	2.3032
0.5622	2.3519
0.5714	2.396
0.5902	2.4311
0.6223	2.455
0.6441	2.4817
0.6615	2.5079
0.6677	2.5321
0.671	2.5597
0.6718	2.5928
0.6728	2.6236
0.6748	2.6483
0.6979	2.6603
0.8199	2.7125
0.9078	2.7738
0.9784	2.8357
1.0474	2.8899
1.1172	2.9356
1.2015	2.9652
1.2887	2.9855
1.3646	3.0054
1.4303	3.0251
1.4811	3.048
1.5224	3.0715
1.5663	3.089
1.6132	3.1002
1.6631	3.108
