Adsorption isotherm of Methane on Zeolite 4A
DOI: 10.1007/s10450-016-9841-6
Article source: Table 9
Adsorbate Methane: InChIKey VNWKTOKETHGBQD-UHFFFAOYSA-N
Kind: experiment
Isotherm type: absolute
Temperature: 298 K
Tabular data in the source: 0
pressure (bar)	uptake (mmol/g)
0	0
0.1971	0.1741
0.4008	0.3433
0.611	0.5076
0.8273	0.6661
1.051	0.8194
1.2833	0.9664
1.5246	1.1066
1.7745	1.2402
2.0333	1.3669
2.3005	1.487
2.5763	1.6004
2.86	1.7075
3.1514	1.8086
3.4507	1.9035
3.7564	1.9931
4.0684	2.0775
4.3862	2.157
4.7091	2.2321
5.0369	2.303
5.3686	2.3702
5.7044	2.4339
6.0431	2.4943
6.3849	2.5518
6.7291	2.607
7.0756	2.6594
7.7665	2.7235
8.4238	2.7976
9.0903	2.8671
9.7663	2.9318
10.4937	2.977
11.1941	3.029
11.8862	3.0816
12.579	3.1319
13.2738	3.1796
13.97	3.225
14.6672	3.2681
15.3649	3.3093
16.0624	3.3487
16.7594	3.3865
17.4552	3.4229
18.1494	3.4581
18.8425	3.4919
19.5368	3.5235
20.2297	3.554
20.9197	3.584
21.6126	3.6116
22.2788	3.6473
22.9171	3.6918
23.5906	3.7224
24.262	3.7513
24.9338	3.7784
25.5941	3.8079
26.2569	3.8346
26.9184	3.8597
27.5775	3.8839
28.2333	3.9074
28.8854	3.9305
29.5345	3.953
30.1796	3.9753
30.8218	3.997
31.4605	4.0183
32.0956	4.0393
32.7272	4.06
33.3557	4.0801
33.9801	4.1002
34.6012	4.1199
35.2201	4.1389
35.8341	4.1581
36.4451	4.1769
37.0529	4.1953
37.6563	4.2139
38.2559	4.2324
38.8525	4.2504
39.4457	4.2681
40.0363	4.2853
40.623	4.3025
41.2069	4.3193
41.787	4.336
42.3636	4.3526
42.9365	4.3692
43.5069	4.3852
44.074	4.4011
44.6373	4.417
45.1969	4.4329
45.7543	4.4482
46.3087	4.4633
46.8595	4.4784
47.4069	4.4935
47.9504	4.5086
48.4915	4.5234
49.0293	4.5381
49.5639	4.5526
50.0957	4.567
50.6243	4.5812
51.1486	4.5958
51.6708	4.6099
52.1899	4.6238
52.705	4.638
53.2186	4.6515
53.7299	4.6646
54.238	4.6777
54.7426	4.691
55.2453	4.7038
55.7451	4.7164
56.2413	4.7294
56.7353	4.7419
57.2252	4.755
57.7138	4.7673
58.1984	4.7801
58.6815	4.7923
59.1616	4.8045
59.6391	4.8166
60.1132	4.8289
60.5855	4.8407
61.0565	4.8519
61.5275	4.862
61.9964	4.872
62.4595	4.8834
62.9193	4.8951
63.3773	4.9064
63.8405	4.9146
64.2878	4.9282
64.7388	4.9393
65.1894	4.9495
65.6317	4.9621
66.0693	4.9754
66.5062	4.9877
66.943	4.9989
67.3763	5.0104
67.8083	5.0212
68.2369	5.0324
68.6638	5.0431
69.0881	5.0538
69.5099	5.0645
69.9298	5.075
70.3476	5.0852
70.7627	5.0955
71.1796	5.1042
71.5956	5.1123
