Adsorption isotherm of Carbonyl sulfide on Zeolite 4A
DOI: 10.1007/s10450-016-9841-6
Article source: Table 7
Adsorbate Carbonyl sulfide: InChIKey JJWKPURADFRFRB-UHFFFAOYSA-N
Kind: experiment
Isotherm type: excess
Temperature: 273 K
Tabular data in the source: 0
pressure (bar)	uptake (mmol/g)
0	0
0.0565	0.333
0.0758	0.4426
0.0819	0.5523
0.0864	0.656
0.0918	0.7526
0.0997	0.8416
0.1079	0.9247
0.1252	0.9968
0.1358	1.0676
0.1506	1.131
0.1576	1.1945
0.1595	1.2567
0.1641	1.3136
0.1724	1.3646
0.1831	1.4106
0.1994	1.4528
0.2493	1.5492
0.2827	1.6464
0.311	1.7387
0.3333	1.8273
0.3565	1.9083
0.3804	1.9826
0.4074	2.0489
0.4468	2.1019
0.4816	2.1519
0.5124	2.1992
0.5393	2.2441
0.5549	2.2915
0.5622	2.34
0.5714	2.3839
0.5902	2.4186
0.6223	2.4418
0.6441	2.468
0.6615	2.4938
0.6677	2.5179
0.671	2.5454
0.6718	2.5785
0.6728	2.6093
0.6748	2.634
0.6979	2.6455
0.8199	2.6951
0.9078	2.7544
0.9784	2.8148
1.0474	2.8675
1.1172	2.9118
1.2015	2.9394
1.2887	2.9579
1.3646	2.9761
1.4303	2.9944
1.4811	3.0162
1.5224	3.0388
1.5663	3.0552
1.6132	3.0655
1.6631	3.0722
