Adsorption isotherm of Methane on Zeolite 4A
DOI: 10.1007/s10450-016-9841-6
Article source: Table 9
Adsorbate Methane: InChIKey VNWKTOKETHGBQD-UHFFFAOYSA-N
Kind: experiment
Isotherm type: excess
Temperature: 298 K
Tabular data in the source: 0
pressure (bar)	uptake (mmol/g)
0	0
0.1971	0.1696
0.4008	0.334
0.611	0.4936
0.8273	0.6471
1.051	0.7952
1.2833	0.9369
1.5246	1.0715
1.7745	1.1993
2.0333	1.32
2.3005	1.4339
2.5763	1.5409
2.86	1.6415
3.1514	1.7358
3.4507	1.8237
3.7564	1.9062
4.0684	1.9833
4.3862	2.0555
4.7091	2.1231
5.0369	2.1863
5.3686	2.2458
5.7044	2.3015
6.0431	2.354
6.3849	2.4035
6.7291	2.4506
7.0756	2.4949
7.7665	2.5434
8.4238	2.6028
9.0903	2.6573
9.7663	2.7067
10.4937	2.7354
11.1941	2.7715
11.8862	2.8083
12.579	2.8429
13.2738	2.8747
13.97	2.9041
14.6672	2.9312
15.3649	2.9563
16.0624	2.9796
16.7594	3.0013
17.4552	3.0215
18.1494	3.0406
18.8425	3.0582
19.5368	3.0736
20.2297	3.0879
20.9197	3.1017
21.6126	3.1129
22.2788	3.133
22.9171	3.1624
23.5906	3.177
24.262	3.19
24.9338	3.2011
25.5941	3.2149
26.2569	3.2257
26.9184	3.235
27.5775	3.2433
28.2333	3.251
28.8854	3.2584
29.5345	3.2653
30.1796	3.2719
30.8218	3.278
31.4605	3.2838
32.0956	3.2893
32.7272	3.2945
33.3557	3.2993
33.9801	3.3041
34.6012	3.3085
35.2201	3.3122
35.8341	3.3163
36.4451	3.32
37.0529	3.3234
37.6563	3.3269
38.2559	3.3305
38.8525	3.3336
39.4457	3.3366
40.0363	3.339
40.623	3.3415
41.2069	3.3436
41.787	3.3457
42.3636	3.3478
42.9365	3.3499
43.5069	3.3515
44.074	3.353
44.6373	3.3546
45.1969	3.3563
45.7543	3.3574
46.3087	3.3583
46.8595	3.3594
47.4069	3.3604
47.9504	3.3616
48.4915	3.3624
49.0293	3.3633
49.5639	3.3641
50.0957	3.3647
50.6243	3.3653
51.1486	3.3663
51.6708	3.3668
52.1899	3.3672
52.705	3.368
53.2186	3.3681
53.7299	3.3679
54.238	3.3677
54.7426	3.3678
55.2453	3.3674
55.7451	3.3669
56.2413	3.3668
56.7353	3.3663
57.2252	3.3665
57.7138	3.3659
58.1984	3.3659
58.6815	3.3653
59.1616	3.3647
59.6391	3.3642
60.1132	3.3638
60.5855	3.3631
61.0565	3.3617
61.5275	3.3593
61.9964	3.3567
62.4595	3.3557
62.9193	3.3551
63.3773	3.3541
63.8405	3.3499
64.2878	3.3515
64.7388	3.3504
65.1894	3.3484
65.6317	3.3491
66.0693	3.3506
66.5062	3.3511
66.943	3.3505
67.3763	3.3501
67.8083	3.3493
68.2369	3.3488
68.6638	3.3478
69.0881	3.347
69.5099	3.3462
69.9298	3.3452
70.3476	3.344
70.7627	3.343
71.1796	3.3402
71.5956	3.337
