Adsorption isotherm of Nitrogen on TTPE-COF
DOI: 10.1039/d1ce00870f
Article source: Figure 3a
Adsorbate Nitrogen: InChIKey IJGRMHOSHXDMSA-UHFFFAOYSA-N
Kind: experiment
Temperature: 77 K
Tabular data in the source: 0
pressure (bar)	uptake ()
0.156822	176.573
0.207485	180.913
0.258147	180.913
0.30881	187.424
0.359472	189.594
0.410135	189.594
0.460797	193.935
0.51146	198.275
0.562122	198.275
0.612785	202.616
0.663447	204.786
0.71411	211.297
0.764772	219.977
0.815435	228.658
0.860531	243.359
0.911169	269.281
0.105504	171.353
0.069132	167.642
0.040708	161.141
0.02333	149.062
0.012893	139.77
0.007648	130.477
0.004119	118.396
0.004073	110.032
0.005727	96.0909
0.003929	84.0094
0.003847	69.1395
0.002038	55.1993
0.001977	44.0469
0.003641	31.9649
0.001848	20.8127
0.001796	11.5191
0.003455	1.49236
0.945791	305.04
0.963215	325.483
0.970196	335.705
0.979015	365.443
0.984286	379.383
0.986099	394.253
0.986259	423.063
0.995058	449.084
0.995181	471.389
1.00049	491.834
1.00057	505.774
1.00241	526.22
1.00247	537.373
0.984631	441.651
0.970371	367.304
0.958166	351.506
0.937198	316.194
0.912856	296.681
0.872908	272.525
0.806975	244.655
0.748058	233.512
0.708219	228.872
0.656253	222.375
0.609494	218.666
0.554091	216.816
0.507338	214.036
0.450173	206.611
0.401705	206.619
0.3515	205.698
0.294361	202.92
0.245872	199.21
0.204312	196.429
0.15929	193.649
0.107323	187.152
0.067479	181.582
0.040785	175.081
0.011265	158.358
