Adsorption isotherm of Carbon Dioxide on TTPE-COF
DOI: 10.1039/d1ce00870f
Article source: Figure 3b
Adsorbate Carbon Dioxide: InChIKey CURLTUGMZLYLDI-UHFFFAOYSA-N
Kind: experiment
Temperature: 273 K
Tabular data in the source: 0
pressure (bar)	uptake ()
0.052071	6.65552
0.079527	7.53856
0.108405	8.25853
0.129717	8.86311
0.34572	14.5881
0.375874	15.3689
0.397934	16.006
0.429437	16.8085
0.455544	17.5637
0.501213	18.9228
0.525971	19.6761
0.555451	20.4914
0.577511	21.1304
0.629251	22.5929
0.647938	23.297
0.755264	26.2848
0.775301	26.8963
0.80478	27.7224
0.829539	28.5339
0.161214	9.71631
0.188196	10.4846
0.213491	11.1348
0.242159	11.844
0.294435	13.2624
0.004384	4.98818
0.02968	5.8156
0.481619	18.3452
0.601349	21.7731
0.677234	23.8416
0.700843	24.669
0.727825	25.2009
0.852614	29.0426
0.881282	29.9291
0.906577	30.6383
0.930185	31.4657
0.958853	32.3522
0.977403	33.1797
0.940304	32.9433
0.899831	32.1749
0.87285	31.8794
0.842496	30.9338
0.820573	30.5792
0.795278	30.3428
0.780101	30.0473
0.737943	28.9835
0.71602	28.4515
0.695784	27.9787
0.667116	27.4468
0.650253	26.974
0.628331	26.4421
0.592917	25.4965
0.572681	24.8463
0.540641	24.078
0.523777	23.6643
0.49511	22.7778
0.47656	22.2459
0.444519	21.3593
0.427656	20.8274
0.400675	20.0591
0.37032	19.5863
0.353457	18.7589
0.314671	17.695
0.289376	16.9858
0.262395	15.922
0.230354	14.74
0.205059	13.4988
0.18145	12.9669
0.14941	11.7258
0.134233	11.1939
0.113997	10.6028
0.09882	9.95272
