Adsorption isotherm of Toluene on TTPE-COF
DOI: 10.1039/d1ce00870f
Article source: Figure 3d
Adsorbate Toluene: InChIKey YXFVVABEGXRONW-UHFFFAOYSA-N
Kind: experiment
Temperature: 293 K
Tabular data in the source: 0
pressure (bar)	uptake (mmol/g)
0.009288	2.58771
0.010908	2.73648
0.017387	3.21885
0.020627	3.53351
0.027221	5.22432
0.025685	4.50811
0.024496	4.23784
0.022365	3.79189
0.019244	3.35946
0.014785	3.02162
0.013794	2.95405
0.011861	2.8054
0.008245	2.48108
0.007254	2.45405
0.006312	2.35946
0.00542	2.21081
0.004429	2.07568
0.003785	1.9946
0.002943	1.91351
0.002299	1.77838
0.001803	1.38649
0.000763	0.9
0.000367	0.683784
