Adsorption isotherm of Carbon Dioxide on TTPE-COF
DOI: 10.1039/d1ce00870f
Article source: Figure 3b
Adsorbate Carbon Dioxide: InChIKey CURLTUGMZLYLDI-UHFFFAOYSA-N
Kind: experiment
Temperature: 298 K
Tabular data in the source: 0
pressure (bar)	uptake (cm3(STP)/g)
0.45	8.36335
0.475	8.9154
0.5	9.60547
0.525	10.2955
0.55	10.8476
0.575	11.5377
0.6	12.3657
0.625	13.0558
0.65	13.8839
0.675	14.712
0.7	15.5401
0.725	16.3681
0.75	17.1962
0.775	18.0243
0.8	18.9904
0.825	19.8185
0.85	20.6466
0.875	21.6127
0.902698	22.6618
0.927698	23.6279
0.952698	24.4835
0.975	25.201
0.427656	7.76596
0.402361	7.17494
0.378752	6.58392
0.355143	5.93381
0.343339	5.5792
0.292749	4.86998
0.237099	3.80615
0.211804	3.33333
0.191568	2.91962
0.159528	2.38771
0.132546	1.85579
0.108938	1.56028
0.075211	1.14657
0.056661	0.673759
0.034739	0.378251
0.009444	0.082742
0.095447	3.15603
0.113997	3.68794
0.132546	4.10166
0.146037	4.63357
0.176391	5.40189
0.189882	5.8156
0.215177	6.52482
0.235413	7.05674
0.264081	7.88416
0.294435	8.82979
0.316358	9.3617
0.350084	10.4255
0.37032	11.0757
0.400675	11.7849
0.420911	12.3168
0.442833	12.8487
0.478246	13.4988
0.49511	14.0307
0.522091	14.9764
0.540641	15.7447
0.582799	16.513
0.59629	17.104
0.616526	17.6359
0.648567	18.2269
0.673862	18.9953
0.694098	19.409
0.726138	20.1182
0.746374	20.8274
0.76661	21.0638
0.786847	21.7731
0.827319	22.7187
0.845868	23.1324
0.869477	23.6052
0.896459	24.0189
0.915008	24.3144
0.938617	25.0236
0.962226	25.3191
