Adsorption isotherm of Water on TTPE-COF
DOI: 10.1039/d1ce00870f
Article source: Figure 3d
Adsorbate Water: InChIKey XLYOFNOQVPJJNP-UHFFFAOYSA-N
Kind: experiment
Temperature: 293 K
Tabular data in the source: 0
pressure (bar)	uptake (mmol/g)
0.004842	0.58612
0.005768	0.68079
0.007621	0.87013
0.008468	0.94949
0.012252	1.73478
0.013178	2.09453
0.017809	4.11415
0.02068	6.17165
0.021051	7.11835
0.021434	7.41351
0.020204	5.21081
0.019252	4.75135
0.015603	3.38649
0.016873	3.64324
0.014453	2.95405
0.009932	1.15676
0.010527	1.25135
0.006441	0.737838
0.006719	0.778378
0.004299	0.535135
0.003705	0.481081
0.003348	0.413514
0.002634	0.386486
0.001959	0.251351
0.001325	0.224324
0.001007	0.156757
1.6e-05	0.008108
