Adsorption isotherm of Nitrogen on TTPE-COF
DOI: 10.1039/d1ce00870f
Article source: Figure 3c
Adsorbate Nitrogen: InChIKey IJGRMHOSHXDMSA-UHFFFAOYSA-N
Kind: experiment
Temperature: 318 K
Tabular data in the source: 0
pressure (bar)	uptake (mg/g)
44.4258	486.102
39.5422	360.678
40.5341	400.508
35.7268	309.831
35.4979	281.864
25.1202	187.797
30.1564	207.288
24.815	149.661
20.0839	112.373
14.8188	78.4746
9.85883	53.0508
9.85883	70
15.475	107.627
5.58565	45.4237
4.9752	26.7797
3.60168	20.8475
2.22816	14.0678
0.702022	8.13559
0.320488	2.20339
0.778329	1.35593
2.91492	23.3898
