Adsorption isotherm of Benzene on TTPE-COF
DOI: 10.1039/d1ce00870f
Article source: Figure 3d
Adsorbate Benzene: InChIKey UHOVQNZJYSORNB-UHFFFAOYSA-N
Kind: experiment
Temperature: 293 K
Tabular data in the source: 0
pressure (bar)	uptake (mmol/g)
0.016027	2.2992
0.060593	3.70572
0.066164	3.90408
0.071734	4.16104
0.077305	4.418
0.082743	4.70952
0.087174	5.17469
0.090834	5.72986
0.057833	3.61622
0.050506	3.41351
0.045394	3.22432
0.041815	3.15676
0.037044	3.06216
0.030399	2.79189
0.029206	2.76486
0.025628	2.61622
0.022731	2.56216
0.020686	2.44054
0.018301	2.37297
0.010462	1.46757
0.007736	1.22432
0.005862	1.04865
0.002795	0.737838
