Adsorption isotherm of Water on TTPE-COF
DOI: 10.1039/d1ce00870f
Article source: Figure 3d
Adsorbate Water: InChIKey XLYOFNOQVPJJNP-UHFFFAOYSA-N
Kind: experiment
Temperature: 293 K
Tabular data in the source: 0
pressure (bar)	uptake (mmol/g)
0.020802	0.58612
0.024781	0.68079
0.032739	0.87013
0.036378	0.94949
0.052635	1.73478
0.056614	2.09453
0.076509	4.11415
0.088844	6.17165
0.090436	7.11835
0.092082	7.41351
0.0868	5.21081
0.082711	4.75135
0.067034	3.38649
0.072487	3.64324
0.062093	2.95405
0.042667	1.15676
0.045223	1.25135
0.027672	0.737838
0.028865	0.778378
0.018471	0.535135
0.015915	0.481081
0.014381	0.413514
0.011314	0.386486
0.008418	0.251351
0.005691	0.224324
0.004328	0.156757
6.8e-05	0.008108
