Adsorption isotherm of Dipyrone, Water on Nickel ferrite nanoparticles
DOI: 10.1007/s10450-018-9953-2
Article source: Figure 4
Adsorbate Dipyrone: InChIKey DJGAAPFSPWAYTJ-UHFFFAOYSA-M
Adsorbate Water: InChIKey XLYOFNOQVPJJNP-UHFFFAOYSA-N
Kind: experiment
Temperature: 295 K
Tabular data in the source: 0
pressure (bar)	Dipyrone fraction	Dipyrone uptake (mg/g)	Water fraction	Water uptake (mg/g)	total uptake (mg/g)
1.01325	0	1.42691			
1.01325	2.26904	3.7587			
1.01325	5.83468	5.81207			
1.01325	9.23825	7.83063			
1.01325	13.2901	9.22274			
1.01325	19.4489	14.3736			
1.01325	46.8395	18.9327			
1.01325	79.2545	28.4687			
1.01325	172.934	31.2529			
