Adsorption isotherm of Diclofenac, Water on Nickel ferrite nanoparticles
DOI: 10.1007/s10450-018-9953-2
Article source: Figure 4
Adsorbate Diclofenac: InChIKey DCOPUUMXTXDBNB-UHFFFAOYSA-N
Adsorbate Water: InChIKey XLYOFNOQVPJJNP-UHFFFAOYSA-N
Kind: experiment
Temperature: 295 K
Tabular data in the source: 0
pressure (bar)	Diclofenac fraction	Diclofenac uptake (mg/g)	Water fraction	Water uptake (mg/g)	total uptake (mg/g)
1.01325	0.972447	0.382831			
1.01325	2.59319	2.74942			
1.01325	5.99676	4.83759			
1.01325	14.9109	6.40371			
1.01325	21.8801	10.1276			
1.01325	49.4327	13.1555			
1.01325	87.5203	15.522			
1.01325	186.548	16.7053			
