Adsorption isotherm of Nitrogen on Thio-COF
DOI: 10.1021/jacs.7b07918
Article source: Figure S7
Adsorbate Nitrogen: InChIKey IJGRMHOSHXDMSA-UHFFFAOYSA-N
Kind: experiment
Temperature: 77 K
Tabular data in the source: 0
pressure (bar)	uptake (cm3(STP)/g)
0.002006	9.19118
0.006019	11.6422
0.008025	15.3186
0.024075	18.3824
0.052172	23.2843
0.078253	26.9608
0.104334	30.0245
0.130415	33.0882
0.155503	35.8456
0.180581	38.9093
0.204656	41.3603
0.230737	44.1176
0.256828	46.5686
0.280903	51.1642
0.306984	54.5343
0.333065	56.9853
0.35715	59.4363
0.383231	62.5
0.408309	65.2573
0.433387	67.7083
0.459478	69.8529
0.484556	72.9167
0.509634	75.3677
0.534712	78.125
0.5598	80.8823
0.585881	83.3333
0.610959	85.7843
0.636037	88.2353
0.662128	90.6863
0.687206	92.8309
0.712284	95.5882
0.737362	98.3456
0.761447	101.716
0.787528	104.779
0.812606	108.15
0.836681	119.485
0.863775	123.468
0.888853	128.064
0.914934	134.191
0.939009	142.157
0.963094	154.105
0.987169	175.858
1.00322	215.074
0.054178	50.8578
0.098316	56.3726
0.148472	62.5
0.198638	68.0147
0.249797	72.9167
0.299963	78.125
0.351122	82.7206
0.401288	87.9289
0.452447	93.75
0.503616	98.652
0.553772	104.167
0.603938	108.456
0.6561	107.843
0.706266	112.132
0.758428	117.034
0.808594	122.855
0.859753	128.676
0.912928	138.48
0.963094	158.701
1.00021	213.848
