Adsorption isotherm of Methane on IRMOF-1
DOI: 10.1002/anie.200700218
Adsorbate Methane: InChIKey VNWKTOKETHGBQD-UHFFFAOYSA-N
Temperature: 298 K
Tabular data in the source: 0
pressure (bar)	uptake (mg/g)
1.26196	8.42701
3.32667	17.1665
6.37457	32.4606
9.42247	49.9396
13.9452	71.7884
19.6477	95.822
21.909	104.561
28.1031	128.595
34.4939	143.889
42.6544	163.553
