Adsorption isotherm of Carbon Dioxide on IRMOF-1
DOI: 10.1002/anie.200700218
Adsorbate Carbon Dioxide: InChIKey CURLTUGMZLYLDI-UHFFFAOYSA-N
Temperature: 298 K
Tabular data in the source: 0
pressure (bar)	uptake (mg/g)
2.73675	84.8976
5.09641	189.772
7.75104	331.788
10.209	491.284
12.7653	635.486
15.125	733.805
17.7796	801.536
20.2376	853.973
22.7939	880.192
27.7099	923.889
35.1821	945.738
42.6544	941.368
