Adsorption isotherm of Carbon Dioxide on IRMOF-1
DOI: 10.1002/anie.200700218
Adsorbate Carbon Dioxide: InChIKey CURLTUGMZLYLDI-UHFFFAOYSA-N
Temperature: 298 K
Tabular data in the source: 0
pressure (bar)	uptake (mg/g)
1.36028	49.9396
3.32667	119.856
5.58801	211.62
7.35776	309.94
9.6191	438.847
11.7821	569.94
13.5519	666.074
15.6166	740.36
18.8611	821.2
24.1704	888.931
32.0359	941.368
38.4267	956.662
42.3594	958.847
