Adsorption isotherm of Methane on IRMOF-1
DOI: 10.1002/anie.200700218
Adsorbate Methane: InChIKey VNWKTOKETHGBQD-UHFFFAOYSA-N
Temperature: 298 K
Tabular data in the source: 0
pressure (bar)	uptake (mg/g)
0.278768	6.24214
2.63843	17.1665
5.19473	32.4606
12.667	67.4186
17.6813	91.4522
22.8922	113.301
27.8082	135.15
32.8225	148.259
37.8368	156.998
42.6544	165.738
