Adsorption isotherm of Water on MIL-101V
DOI: 10.1016/j.jcis.2015.06.036
Article source: Figure 2
Adsorbate Water: InChIKey XLYOFNOQVPJJNP-UHFFFAOYSA-N
Kind: experiment
Temperature: 298 K
Tabular data in the source: 0
pressure (bar)	uptake (cm3(STP)/g)
4e-05	0.587
0.000279	20.794
0.000607	43.609
0.000828	49.441
0.001183	63.491
0.001456	72.307
0.001785	79.564
0.002139	86.868
0.002461	92.473
0.002787	98.895
0.003086	101.938
0.006444	134.996
0.009348	161.437
0.012966	189.452
0.015794	201.023
0.018777	218.838
0.021866	254.553
0.025132	328.715
0.00134	179.334
0.001935	197.185
0.002533	209.264
0.003189	221.747
0.006284	253.028
0.009322	273.621
0.012614	291.117
0.015576	305.186
0.018913	317.555
0.021774	323.674
