Adsorption isotherm of Carbon Dioxide on MIL-100V after O2 binding
DOI: 10.1016/j.jcis.2015.06.036
Article source: Figure 8
Adsorbate Carbon Dioxide: InChIKey CURLTUGMZLYLDI-UHFFFAOYSA-N
Kind: experiment
Temperature: 298 K
Tabular data in the source: 0
pressure (bar)	uptake (cm3(STP)/g)
0.00092	0.082
0.04748	4.1882
0.09584	7.4932
0.19658	12.5069
0.40389	19.2624
0.60156	24.5397
0.79656	29.1187
0.99865	33.435
