Adsorption isotherm of Nitrogen on MIL-100V after O2 binding
DOI: 10.1016/j.jcis.2015.06.036
Article source: Figure 8
Adsorbate Nitrogen: InChIKey IJGRMHOSHXDMSA-UHFFFAOYSA-N
Kind: experiment
Temperature: 298 K
Tabular data in the source: 0
pressure (bar)	uptake (cm3(STP)/g)
0.0008	0.0741
0.05176	0.2321
0.09848	0.3519
0.204	0.6129
0.29608	0.903
0.39734	1.1886
0.49783	1.4691
0.59906	1.7496
0.69688	2.0048
0.7984	2.2573
0.99858	2.755
