Adsorption isotherm of Carbon Dioxide on MIL-100V before O2 binding
DOI: 10.1016/j.jcis.2015.06.036
Article source: Figure 7
Adsorbate Carbon Dioxide: InChIKey CURLTUGMZLYLDI-UHFFFAOYSA-N
Kind: experiment
Temperature: 298 K
Tabular data in the source: 0
pressure (bar)	uptake (cm3(STP)/g)
0.044	0.85
0.0814	5.405
0.1879	12.237
0.3996	19.781
0.5905	25.807
0.7953	30.789
0.9889	35.866
1.4868	46.838
2.0027	54.819
3.993	85.399
5.997	109.343
7.9831	129.381
9.9977	147.043
