Adsorption isotherm of Nitrogen on MIL-100V before O2 binding
DOI: 10.1016/j.jcis.2015.06.036
Article source: Figure 8
Adsorbate Nitrogen: InChIKey IJGRMHOSHXDMSA-UHFFFAOYSA-N
Kind: experiment
Temperature: 298 K
Tabular data in the source: 0
pressure (bar)	uptake (cm3(STP)/g)
0.00095	0.0919
0.05219	0.295
0.0978	0.4279
0.19757	0.8023
0.39737	1.4348
0.59699	2.0093
0.79784	2.5993
0.99806	3.1692
