Adsorption isotherm of Oxygen on MIL-101V(H2O)
DOI: 10.1016/j.jcis.2015.06.036
Article source: Figure 1
Adsorbate Oxygen: InChIKey MYMOFIZGZYHOMD-UHFFFAOYSA-N
Kind: experiment
Temperature: 298 K
Tabular data in the source: 0
pressure (bar)	uptake (wt%)
0.00095	0.04188
0.04774	1.62635
0.09705	1.72386
0.19812	1.83438
0.39731	1.98571
0.59876	2.10464
0.80043	2.2491
1.00034	2.39187
0.0475	1.98176
0.09664	2.0182
0.19743	2.06304
0.3986	2.15973
0.599	2.24394
0.79891	2.3156
0.9994	2.39232
