Adsorption isotherm of Oxygen on MIL-100V
DOI: 10.1016/j.jcis.2015.06.036
Article source: Figure 2
Adsorbate Oxygen: InChIKey MYMOFIZGZYHOMD-UHFFFAOYSA-N
Kind: experiment
Temperature: 298 K
Tabular data in the source: 0
pressure (bar)	uptake (cm3(STP)/g)
0.000138	0.00655
0.039129	0.86329
0.058845	1.25413
0.078491	1.66967
0.09831	2.08085
0.118116	2.48507
0.13759	2.87454
0.157395	3.25092
0.177228	3.62893
0.196674	3.9967
