Adsorption isotherm of Oxygen on MIL-100V
DOI: 10.1016/j.jcis.2015.06.036
Article source: Figure 1
Adsorbate Oxygen: InChIKey MYMOFIZGZYHOMD-UHFFFAOYSA-N
Kind: experiment
Temperature: 298 K
Tabular data in the source: 0
pressure (bar)	uptake (wt%)
0.00048	0.04532
0.01712	2.39813
0.04775	2.00681
0.09685	2.05644
0.09941	2.41565
0.19924	2.15574
0.20605	2.45704
0.3978	2.51136
0.39897	2.306
0.59841	2.56863
0.59903	2.44502
0.79807	2.62654
0.79917	2.56365
0.9984	2.6898
