Adsorption isotherm of Oxygen on MIL-101V (DMF)
DOI: 10.1016/j.jcis.2015.06.036
Article source: Figure 1
Adsorbate Oxygen: InChIKey MYMOFIZGZYHOMD-UHFFFAOYSA-N
Kind: experiment
Temperature: 298 K
Tabular data in the source: 0
pressure (bar)	uptake (wt%)
0.00059	0.05133
0.04456	0.46262
0.09746	0.51949
0.19937	0.59482
0.39924	0.72535
0.6	0.86495
0.8004	0.99406
0.99573	1.11614
0.01332	0.65812
0.09434	0.69754
0.19835	0.74788
0.39674	0.84775
0.59906	0.94532
0.80009	1.03272
