Adsorption isotherm of Oxygen on MIL-100V(Methanol)
DOI: 10.1016/j.jcis.2015.06.036
Article source: Figure 1
Adsorbate Oxygen: InChIKey MYMOFIZGZYHOMD-UHFFFAOYSA-N
Kind: experiment
Temperature: 298 K
Tabular data in the source: 0
pressure (bar)	uptake (wt%)
0.0006	0.04241
0.01675	0.4673
0.04973	0.34397
0.09779	0.38243
0.19824	0.54513
0.19901	0.43314
0.39557	0.6416
0.39899	0.55097
0.59901	0.67054
0.59907	0.74054
0.79879	0.83037
0.80559	0.79021
0.998	0.90609
