Adsorption isotherm of Methane on MIL-100V after O2 binding
DOI: 10.1016/j.jcis.2015.06.036
Article source: Figure 7
Adsorbate Methane: InChIKey VNWKTOKETHGBQD-UHFFFAOYSA-N
Kind: experiment
Temperature: 298 K
Tabular data in the source: 0
pressure (bar)	uptake (cm3(STP)/g)
0.0153	0.219
0.3935	2.162
0.5956	3.036
0.8021	4.577
0.999	5.911
2.002	12.075
3.9941	23.223
5.9887	32.885
7.999	41.319
10.0017	48.531
