Adsorption isotherm of Water on MIL-100V
DOI: 10.1016/j.jcis.2015.06.036
Article source: Figure 2
Adsorbate Water: InChIKey XLYOFNOQVPJJNP-UHFFFAOYSA-N
Kind: experiment
Temperature: 298 K
Tabular data in the source: 0
pressure (bar)	uptake (cm3(STP)/g)
2.2e-05	0.688
0.000597	20.087
0.001177	32.378
0.00186	42.01
0.002425	49.624
0.002694	52.574
0.003017	56.78
0.006251	82.195
0.009463	102.796
0.012608	121.528
0.015723	142.43
0.018962	165.225
0.022194	182.847
0.025289	193.43
0.001346	105.272
0.001954	115.67
0.002536	123.411
0.003196	130.344
0.006285	148.776
0.009287	160.795
0.012602	171.314
0.015565	179.637
0.018888	186.579
0.021749	190.392
