Adsorption isotherm of Nitrogen on MIL-101V before O2 binding
DOI: 10.1016/j.jcis.2015.06.036
Article source: Figure 6
Adsorbate Nitrogen: InChIKey IJGRMHOSHXDMSA-UHFFFAOYSA-N
Kind: experiment
Temperature: 77 K
Tabular data in the source: 0
pressure (bar)	uptake (cm3(STP)/g)
0.000892	317.32
0.019586	421.79
0.050794	518.36
0.067452	564.55
0.090433	614.57
0.112045	648.05
0.138532	693.14
0.159668	711.92
0.176964	733.17
0.18732	768.86
0.240576	808.16
0.324848	823.66
0.371245	829.29
0.399687	833.05
0.451555	837.44
0.501143	842.77
0.553468	848.1
0.604697	852.18
0.655552	856.57
0.708059	860.03
0.758377	864.42
0.810326	868.34
0.830591	869.34
0.861597	872.31
0.886746	873.9
0.912128	875.29
0.93831	877.07
0.964269	881.01
0.987584	886.32
0.994474	889.26
1.00423	895.35
1.0086	900.05
