Adsorption isotherm of Methane on MIL-101V before O2 binding
DOI: 10.1016/j.jcis.2015.06.036
Article source: Figure 7
Adsorbate Methane: InChIKey VNWKTOKETHGBQD-UHFFFAOYSA-N
Kind: experiment
Temperature: 298 K
Tabular data in the source: 0
pressure (bar)	uptake (cm3(STP)/g)
0.0076	0.164
0.4748	4.919
0.9746	10.641
1.9796	20.9
2.9901	30.118
3.977	38.724
4.9779	46.795
5.9833	54.606
6.9758	62.045
7.9811	69.369
8.9917	76.275
9.9785	83.077
