Adsorption isotherm of Methane on MIL-100V before O2 binding
DOI: 10.1016/j.jcis.2015.06.036
Article source: Figure 8
Adsorbate Methane: InChIKey VNWKTOKETHGBQD-UHFFFAOYSA-N
Kind: experiment
Temperature: 298 K
Tabular data in the source: 0
pressure (bar)	uptake (cm3(STP)/g)
0.00108	0.0524
0.04757	0.4509
0.09819	1.1104
0.19848	2.2932
0.29952	3.337
0.39854	4.2753
0.49845	5.1755
0.59935	6.0636
0.69903	6.8813
0.79902	7.6676
0.90004	8.4229
0.99844	9.1902
