Adsorption isotherm of Oxygen on MIL-101V(Methanol)
DOI: 10.1016/j.jcis.2015.06.036
Article source: Figure 1
Adsorbate Oxygen: InChIKey MYMOFIZGZYHOMD-UHFFFAOYSA-N
Kind: experiment
Temperature: 298 K
Tabular data in the source: 0
pressure (bar)	uptake (wt%)
0.00022	0.04442
0.04668	0.37861
0.09728	0.41937
0.19659	0.48118
0.39781	0.62811
0.59893	0.74193
0.79956	0.87554
0.99969	1.02135
0.0477	0.56214
0.09708	0.59785
0.19693	0.64929
0.39813	0.75218
0.5998	0.84482
0.79936	0.94069
