Adsorption isotherm of Oxygen on MIL-101V
DOI: 10.1016/j.jcis.2015.06.036
Article source: Figure 2
Adsorbate Oxygen: InChIKey MYMOFIZGZYHOMD-UHFFFAOYSA-N
Kind: experiment
Temperature: 298 K
Tabular data in the source: 0
pressure (bar)	uptake (cm3(STP)/g)
0.00018	0.00697
0.039106	0.9407
0.078569	1.83715
0.118337	2.71599
0.157674	3.51327
0.197036	4.21301
