Adsorption isotherm of Methane on MIL-100V after O2 binding
DOI: 10.1016/j.jcis.2015.06.036
Article source: Figure 8
Adsorbate Methane: InChIKey VNWKTOKETHGBQD-UHFFFAOYSA-N
Kind: experiment
Temperature: 298 K
Tabular data in the source: 0
pressure (bar)	uptake (cm3(STP)/g)
0.00108	0.0645
0.09788	0.9589
0.19829	1.7283
0.29859	2.5796
0.39761	3.3912
0.49852	4.1459
0.59953	4.8443
0.69751	5.5078
0.79832	6.1475
0.90217	6.8394
0.99705	7.4174
