Adsorption isotherm of Nitrogen on MIL-101V after O2 binding
DOI: 10.1016/j.jcis.2015.06.036
Article source: Figure 6
Adsorbate Nitrogen: InChIKey IJGRMHOSHXDMSA-UHFFFAOYSA-N
Kind: experiment
Temperature: 77 K
Tabular data in the source: 0
pressure (bar)	uptake (cm3(STP)/g)
0.001277	308.41
0.018735	388.9
0.048768	451.47
0.069833	482.32
0.091618	512.43
0.110799	545.63
0.130557	598.82
0.150174	651.65
0.172536	673.12
0.194828	691.99
0.240941	790.23
0.300489	801.06
0.354759	807.07
0.420762	810.34
0.472276	813.28
0.501721	814.98
0.552454	814.58
0.603319	813.92
0.655127	815.12
0.706357	815.33
0.757445	816.28
0.807955	817.97
0.830531	820.92
0.859905	822.62
0.885814	827.54
0.910415	831.72
0.937185	837.38
0.962375	846.5
0.988132	863.77
0.993056	870.43
1.00695	891.66
1.0071	891.97
