Adsorption isotherm of Carbon Dioxide on MIL-101V after O2 binding
DOI: 10.1016/j.jcis.2015.06.036
Article source: Figure 7
Adsorbate Carbon Dioxide: InChIKey CURLTUGMZLYLDI-UHFFFAOYSA-N
Kind: experiment
Temperature: 298 K
Tabular data in the source: 0
pressure (bar)	uptake (cm3(STP)/g)
0.038	1.232
0.0895	4.135
0.1968	7.876
0.3922	14.52
0.6147	21.882
0.7804	27.15
0.9942	33.285
1.4975	45.558
1.9904	56.903
3.9894	96.908
5.9871	134.052
7.9868	171.046
9.9793	208.688
