Adsorption isotherm of Methane on MIL-101V after O2 binding
DOI: 10.1016/j.jcis.2015.06.036
Article source: Figure 7
Adsorbate Methane: InChIKey VNWKTOKETHGBQD-UHFFFAOYSA-N
Kind: experiment
Temperature: 298 K
Tabular data in the source: 0
pressure (bar)	uptake (cm3(STP)/g)
0.0069	0.11
0.3904	4.065
0.5892	6.299
0.7894	8.221
0.9914	10.2
1.4911	14.908
1.9928	19.357
3.9864	35.127
5.9905	49.258
7.9947	62.199
9.9983	74.165
