Adsorption isotherm of Carbon Dioxide on MIL-101V before O2 binding
DOI: 10.1016/j.jcis.2015.06.036
Article source: Figure 7
Adsorbate Carbon Dioxide: InChIKey CURLTUGMZLYLDI-UHFFFAOYSA-N
Kind: experiment
Temperature: 298 K
Tabular data in the source: 0
pressure (bar)	uptake (cm3(STP)/g)
0.0256	1.07
0.0934	3.733
0.1903	7.776
0.3827	14.625
0.6166	22.379
0.7909	27.898
1.0013	34.795
1.5023	47.833
1.9829	59.567
3.9852	101.957
5.9941	141.556
7.9856	179.934
9.9746	219.408
