Adsorption isotherm of Oxygen on MIL-100V(Activated)
DOI: 10.1016/j.jcis.2015.06.036
Article source: Figure 1
Adsorbate Oxygen: InChIKey MYMOFIZGZYHOMD-UHFFFAOYSA-N
Kind: experiment
Temperature: 298 K
Tabular data in the source: 0
pressure (bar)	uptake (wt%)
0.00092	0.04201
0.01783	0.10114
0.04905	0.07485
0.09807	0.12131
0.09998	0.1707
0.20005	0.20225
0.20714	0.24135
0.39898	0.37272
0.40031	0.3298
0.5988	0.51214
0.60092	0.4703
0.79904	0.62688
0.80008	0.58746
0.99915	0.71615
