Adsorption isotherm of Nitrogen on MIL-100V before O2 binding
DOI: 10.1016/j.jcis.2015.06.036
Article source: Figure 6
Adsorbate Nitrogen: InChIKey IJGRMHOSHXDMSA-UHFFFAOYSA-N
Kind: experiment
Temperature: 77 K
Tabular data in the source: 0
pressure (bar)	uptake (cm3(STP)/g)
0.001327	258.81
0.009798	279.29
0.019708	296.44
0.030134	324.57
0.03976	341.84
0.065385	369.71
0.118125	393.12
0.14301	398.77
0.168544	405.17
0.218143	413.81
0.244842	414.41
0.27073	416.25
0.296244	417.01
0.34792	417.43
0.39768	418.64
0.44963	420.15
0.501579	421.04
0.552069	423.8
0.604019	428.11
0.654934	434.02
0.704705	437.44
0.757222	439.12
0.808148	442.04
0.859814	443.45
0.910425	448.7
0.962567	466.38
1.00724	513.3
