Adsorption isotherm of Carbon Dioxide on MIL-100V after O2 binding
DOI: 10.1016/j.jcis.2015.06.036
Article source: Figure 7
Adsorbate Carbon Dioxide: InChIKey CURLTUGMZLYLDI-UHFFFAOYSA-N
Kind: experiment
Temperature: 298 K
Tabular data in the source: 0
pressure (bar)	uptake (cm3(STP)/g)
0.0578	2.695
0.0952	7.091
0.1927	12.115
0.4016	19.203
0.597	24.376
0.7919	29.171
0.9985	33.848
1.4976	42.56
2.0029	50.892
3.9923	78.693
6.0081	102.72
7.9887	121.834
9.9797	139.026
