Adsorption isotherm of Oxygen on MIL-101V (DMF)
DOI: 10.1016/j.jcis.2015.06.036
Article source: Figure 1
Adsorbate Oxygen: InChIKey MYMOFIZGZYHOMD-UHFFFAOYSA-N
Kind: experiment
Temperature: 298 K
Tabular data in the source: 0
pressure (bar)	uptake (wt%)
0.00073	0.04527
0.04858	1.85903
0.09805	1.89451
0.19807	1.96408
0.29839	2.03072
0.39856	2.10575
0.49816	2.17157
0.59806	2.2221
0.69795	2.29773
0.79871	2.35288
0.90074	2.43084
0.99893	2.50669
0.04778	2.0711
0.09714	2.10818
0.19782	2.15675
0.39802	2.25926
0.59905	2.3456
0.79898	2.42116
0.9983	2.50481
