Adsorption isotherm of Nitrogen on MIL-100V after O2 binding
DOI: 10.1016/j.jcis.2015.06.036
Article source: Figure 6
Adsorbate Nitrogen: InChIKey IJGRMHOSHXDMSA-UHFFFAOYSA-N
Kind: experiment
Temperature: 77 K
Tabular data in the source: 0
pressure (bar)	uptake (cm3(STP)/g)
0.000912	209.17
0.018705	239.66
0.049224	272.24
0.070705	285.08
0.089288	294.71
0.1086	305.07
0.129139	316.43
0.155169	321.36
0.178606	321.36
0.200005	325.8
0.240789	328.76
0.300743	333.81
0.363514	337.38
0.398734	336.99
0.4504	340.87
0.501275	343.4
0.552191	345.74
0.604475	347.34
0.655097	348.07
0.705516	352.97
0.758083	355.91
0.809273	360.85
0.830399	362.02
0.86105	365.15
0.885277	369.46
0.911672	373.57
0.936243	382.58
0.961149	396.3
0.983845	422.21
0.994991	438.51
1.00279	448.63
1.00837	456.04
