Adsorption isotherm of Oxygen on MIL-101V(Activated)
DOI: 10.1016/j.jcis.2015.06.036
Article source: Figure 1
Adsorbate Oxygen: InChIKey MYMOFIZGZYHOMD-UHFFFAOYSA-N
Kind: experiment
Temperature: 298 K
Tabular data in the source: 0
pressure (bar)	uptake (wt%)
0.00127	0.0439
0.04803	0.06808
0.09867	0.11469
0.19762	0.18602
0.39836	0.30762
0.59971	0.435
0.79917	0.55134
0.99869	0.68291
0.04716	0.1225
0.09592	0.16414
0.19708	0.23233
0.39783	0.35391
0.59885	0.4825
0.79748	0.59357
0.99836	0.67493
