Adsorption isotherm of Oxygen on MIL-100V (H2O)
DOI: 10.1016/j.jcis.2015.06.036
Article source: Figure 1
Adsorbate Oxygen: InChIKey MYMOFIZGZYHOMD-UHFFFAOYSA-N
Kind: experiment
Temperature: 298 K
Tabular data in the source: 0
pressure (bar)	uptake (wt%)
0.00117	0.03842
0.01701	2.50123
0.04927	2.10904
0.09721	2.51912
0.09771	2.1747
0.19946	2.25693
0.20626	2.55829
0.39812	2.6116
0.39892	2.41496
0.59772	2.67415
0.59863	2.54413
0.79736	2.67501
0.79828	2.72822
0.99748	2.79012
0.99796	2.78794
