Adsorption isotherm of Methane on MIL-100V before O2 binding
DOI: 10.1016/j.jcis.2015.06.036
Article source: Figure 7
Adsorbate Methane: InChIKey VNWKTOKETHGBQD-UHFFFAOYSA-N
Kind: experiment
Temperature: 298 K
Tabular data in the source: 0
pressure (bar)	uptake (cm3(STP)/g)
0.0076	0.2
0.499	3.842
0.9926	7.539
1.9977	14.658
3	21.458
3.9893	27.794
4.9897	34.057
5.9887	39.919
6.9719	45.499
7.9855	51.051
9.0092	56.554
9.9713	61.61
