Adsorption isotherm of Carbon Dioxide on MIL-100V before O2 binding
DOI: 10.1016/j.jcis.2015.06.036
Article source: Figure 8
Adsorbate Carbon Dioxide: InChIKey CURLTUGMZLYLDI-UHFFFAOYSA-N
Kind: experiment
Temperature: 298 K
Tabular data in the source: 0
pressure (bar)	uptake (cm3(STP)/g)
0.00068	0.1204
0.04741	4.7561
0.09698	8.3302
0.19731	13.2231
0.39845	20.9336
0.59855	26.8846
0.79895	31.7719
0.99842	36.099
