Adsorption isotherm of Nitrogen on CuBTC (AsH3 wet)
DOI: 10.1021/acs.iecr.5b00458
Article source: Figure 4
Adsorbate Nitrogen: InChIKey IJGRMHOSHXDMSA-UHFFFAOYSA-N
Kind: experiment
Temperature: 77 K
Tabular data in the source: 0
pressure (bar)	uptake (cm3(STP)/g)
0.00369	1.02564
0.009225	1.02564
0.027675	1.02564
0.0369	1.02564
0.055351	1.02564
0.064576	1.02564
0.083026	1.02564
0.090406	1.02564
0.110701	1.02564
0.116236	1.02564
0.138376	1.02564
0.145756	0
0.164207	1.02564
0.171587	0
0.193727	0
0.202952	1.02564
0.219557	0
0.226937	0
0.249077	0
0.254613	0
0.274908	0
0.282288	0
0.300738	0
0.309963	0
0.330258	0
0.335793	0
0.356089	0
0.365314	0
0.383764	0
0.391144	0
0.411439	0
0.418819	0
0.439114	0
0.446494	0
0.46679	0
0.472325	0
0.49631	0
0.50369	0
0.523985	0
0.531365	0
0.551661	0
0.557196	0
0.577491	0
0.583026	0
0.603321	0
0.614391	0
0.632841	0
0.642066	0
0.660517	0
0.667897	0
0.688192	0
0.693727	0
0.715867	0
0.723247	0
0.743542	0
0.750923	1.02564
0.771218	0
0.776753	0
0.797048	0
0.804428	0
0.824723	0
0.832103	0
0.854244	0
0.859779	0
0.878229	0
0.885609	0
0.907749	0
0.915129	0
0.935424	0
0.939114	0
0.9631	0
0.968635	0
