Adsorption isotherm of Nitrogen on CuBTC (H2S dry)
DOI: 10.1021/acs.iecr.5b00458
Article source: Figure 4
Adsorbate Nitrogen: InChIKey IJGRMHOSHXDMSA-UHFFFAOYSA-N
Kind: experiment
Temperature: 77 K
Tabular data in the source: 0
pressure (bar)	uptake (cm3(STP)/g)
0.001845	6.15385
0.00738	7.17949
0.016605	8.20513
0.023985	9.23077
0.031365	10.2564
0.0369	10.2564
0.046125	11.2821
0.055351	11.2821
0.064576	11.2821
0.071956	11.2821
0.084871	11.2821
0.099631	12.3077
0.121771	12.3077
0.143911	12.3077
0.156827	13.3333
0.175277	13.3333
0.199262	13.3333
0.225092	13.3333
0.241697	14.359
0.261993	14.359
0.273063	14.359
0.289668	14.359
0.302583	15.3846
0.313653	14.359
0.335793	15.3846
0.356089	15.3846
0.381919	15.3846
0.407749	16.4103
0.428044	16.4103
0.453875	16.4103
0.47786	17.4359
0.49631	17.4359
0.509225	18.4615
0.527675	18.4615
0.542435	18.4615
0.568266	19.4872
0.588561	19.4872
0.608856	19.4872
0.632841	19.4872
0.643911	20.5128
0.656827	20.5128
0.671587	21.5385
0.690037	21.5385
0.699262	21.5385
0.715867	22.5641
0.736162	23.5897
0.754613	24.6154
0.763838	24.6154
0.785978	25.641
0.802583	26.6667
0.826568	27.6923
0.841328	28.7179
0.857934	29.7436
0.870849	31.7949
0.883764	33.8462
0.891144	34.8718
0.902214	36.9231
0.909594	40
0.918819	43.0769
0.924354	46.1538
0.928044	49.2308
0.933579	53.3333
0.939114	56.4103
0.942804	60.5128
0.946494	64.6154
0.950185	68.7179
0.95203	71.7949
0.957565	76.9231
0.9631	83.0769
0.964945	88.2051
0.968635	94.359
0.97417	98.4615
