Adsorption isotherm of Nitrogen on CuBTC
DOI: 10.1021/acs.iecr.5b00458
Article source: Figure 4
Adsorbate Nitrogen: InChIKey IJGRMHOSHXDMSA-UHFFFAOYSA-N
Kind: experiment
Temperature: 77 K
Tabular data in the source: 0
pressure (bar)	uptake (cm3(STP)/g)
0	-0.001845
0	301.538
0.00369	308.718
0.00738	311.795
0.01107	314.872
0.02214	316.923
0.035055	321.026
0.046125	323.077
0.057196	326.154
0.070111	329.231
0.086716	330.256
0.103321	332.308
0.123616	335.385
0.142066	336.41
0.169742	338.462
0.186347	338.462
0.202952	340.513
0.221402	340.513
0.247232	341.538
0.273063	342.564
0.308118	344.615
0.332103	344.615
0.356089	344.615
0.385609	344.615
0.405904	344.615
0.428044	345.641
0.453875	346.667
0.468635	346.667
0.487085	346.667
0.501845	346.667
0.520295	346.667
0.538745	346.667
0.559041	346.667
0.573801	347.692
0.584871	347.692
0.599631	347.692
0.612546	347.692
0.629151	348.718
0.645756	348.718
0.658672	348.718
0.667897	349.744
0.684502	348.718
0.697417	349.744
0.712177	349.744
0.721402	349.744
0.728782	349.744
0.736162	349.744
0.743542	349.744
0.747232	350.769
0.758303	349.744
0.767528	350.769
0.780443	350.769
0.784133	350.769
0.800738	350.769
0.819188	351.795
0.837638	351.795
0.856089	353.846
0.872694	353.846
0.887454	355.897
0.905904	357.949
0.916974	357.949
0.929889	360
0.939114	362.051
0.95203	365.128
0.95572	368.205
0.957565	371.282
0.9631	375.385
0.964945	377.436
0.96679	379.487
0.97048	383.59
0.976015	386.667
