Adsorption isotherm of Nitrogen on CuBTC (NH3 dry)
DOI: 10.1021/acs.iecr.5b00458
Article source: Figure 4
Adsorbate Nitrogen: InChIKey IJGRMHOSHXDMSA-UHFFFAOYSA-N
Kind: experiment
Temperature: 77 K
Tabular data in the source: 0
pressure (bar)	uptake (cm3(STP)/g)
0	25.641
0.00369	27.6923
0.009225	29.7436
0.01845	30.7692
0.020295	30.7692
0.0369	31.7949
0.049815	31.7949
0.066421	31.7949
0.086716	31.7949
0.099631	32.8205
0.116236	31.7949
0.136531	31.7949
0.153137	32.8205
0.167897	32.8205
0.184502	31.7949
0.212177	31.7949
0.238007	31.7949
0.263838	31.7949
0.285978	32.8205
0.309963	32.8205
0.335793	31.7949
0.361624	31.7949
0.385609	31.7949
0.405904	31.7949
0.426199	31.7949
0.450185	31.7949
0.47786	31.7949
0.505535	31.7949
0.52583	31.7949
0.553506	31.7949
0.581181	31.7949
0.599631	31.7949
0.614391	31.7949
0.630996	31.7949
0.640221	31.7949
0.653137	31.7949
0.669742	31.7949
0.688192	31.7949
0.706642	31.7949
0.719557	31.7949
0.732472	31.7949
0.749077	31.7949
0.778598	31.7949
0.802583	32.8205
0.826568	32.8205
0.861624	32.8205
0.889299	34.8718
0.907749	35.8974
0.920664	36.9231
0.935424	40
0.948339	42.0513
0.95941	46.1538
0.964945	48.2051
0.972325	50.2564
