Adsorption isotherm of Nitrogen on CuBTC (H2S wet)
DOI: 10.1021/acs.iecr.5b00458
Article source: Figure 4
Adsorbate Nitrogen: InChIKey IJGRMHOSHXDMSA-UHFFFAOYSA-N
Kind: experiment
Temperature: 77 K
Tabular data in the source: 0
pressure (bar)	uptake (cm3(STP)/g)
0.001845	2.05128
0.009225	2.05128
0.027675	2.05128
0.035055	2.05128
0.055351	2.05128
0.062731	3.07692
0.086716	3.07692
0.090406	3.07692
0.112546	3.07692
0.118081	3.07692
0.138376	3.07692
0.143911	3.07692
0.167897	3.07692
0.173432	3.07692
0.193727	3.07692
0.201107	3.07692
0.219557	3.07692
0.226937	3.07692
0.249077	3.07692
0.254613	3.07692
0.274908	3.07692
0.282288	3.07692
0.302583	3.07692
0.309963	4.10256
0.332103	4.10256
0.337638	4.10256
0.357934	3.07692
0.365314	3.07692
0.385609	3.07692
0.389299	3.07692
0.413284	4.10256
0.420664	4.10256
0.439114	4.10256
0.446494	4.10256
0.468635	4.10256
0.47417	4.10256
0.49631	4.10256
0.50369	4.10256
0.523985	4.10256
0.531365	4.10256
0.549815	4.10256
0.557196	4.10256
0.579336	4.10256
0.586716	4.10256
0.605166	4.10256
0.612546	4.10256
0.634686	4.10256
0.640221	4.10256
0.660517	4.10256
0.667897	4.10256
0.686347	4.10256
0.695572	5.12821
0.715867	5.12821
0.723247	5.12821
0.743542	5.12821
0.750923	5.12821
0.769373	5.12821
0.778598	5.12821
0.798893	5.12821
0.806273	5.12821
0.826568	5.12821
0.832103	5.12821
0.852399	6.15385
0.859779	6.15385
0.880074	6.15385
0.887454	6.15385
0.905904	7.17949
0.915129	7.17949
0.933579	8.20513
0.942804	9.23077
0.961255	11.2821
0.968635	12.3077
