Adsorption isotherm of Nitrogen on CuBTC (AsH3 dry)
DOI: 10.1021/acs.iecr.5b00458
Article source: Figure 4
Adsorbate Nitrogen: InChIKey IJGRMHOSHXDMSA-UHFFFAOYSA-N
Kind: experiment
Temperature: 77 K
Tabular data in the source: 0
pressure (bar)	uptake (cm3(STP)/g)
0	8.20513
0.001845	11.2821
0.00738	12.3077
0.012915	13.3333
0.03321	14.359
0.049815	15.3846
0.070111	16.4103
0.094096	17.4359
0.125461	16.4103
0.149446	17.4359
0.177122	18.4615
0.191882	18.4615
0.219557	18.4615
0.245387	18.4615
0.278598	18.4615
0.308118	18.4615
0.332103	19.4872
0.356089	19.4872
0.385609	20.5128
0.409594	20.5128
0.431734	20.5128
0.45203	20.5128
0.47048	20.5128
0.48524	20.5128
0.50738	20.5128
0.53321	20.5128
0.551661	21.5385
0.573801	21.5385
0.584871	22.5641
0.599631	21.5385
0.621771	21.5385
0.634686	21.5385
0.658672	21.5385
0.669742	22.5641
0.677122	23.5897
0.690037	23.5897
0.708487	24.6154
0.734317	24.6154
0.754613	25.641
0.784133	27.6923
0.802583	27.6923
0.824723	29.7436
0.837638	29.7436
0.852399	31.7949
0.872694	34.8718
0.891144	36.9231
0.905904	38.9744
0.926199	42.0513
0.935424	44.1026
0.944649	47.1795
0.95203	49.2308
0.957565	52.3077
0.96679	56.4103
0.97417	60.5128
