Adsorption isotherm of Nitrogen on IRMOF-1
DOI: 10.1007/s11090-011-9290-7
Adsorbate Nitrogen: InChIKey IJGRMHOSHXDMSA-UHFFFAOYSA-N
Temperature: 77 K
Tabular data in the source: 0
pressure (bar)	uptake (cm3(STP)/g)
0.00469333	4.47284
0.00704	10.0639
0.0187733	13.4185
0.0328533	15.655
0.0610133	16.7732
0.07744	17.8914
0.1056	19.0096
0.150187	17.8914
0.293333	20.1278
0.342613	21.246
0.39424	21.246
0.43648	22.3642
0.48576	23.4824
0.532693	24.6006
0.6336	25.7188
0.678187	26.8371
0.729813	27.9553
0.776747	29.0735
0.828373	31.3099
0.875307	36.901
0.924587	51.4377
