Adsorption isotherm of Nitrogen on IRMOF-1
DOI: 10.1007/s11090-011-9290-7
Adsorbate Nitrogen: InChIKey IJGRMHOSHXDMSA-UHFFFAOYSA-N
Temperature: 77 K
Tabular data in the source: 0
pressure (bar)	uptake (cm3(STP)/g)
0.00471612	1.48148
0.0212225	2.07407
0.040087	2.37037
0.0565934	2.66667
0.080174	2.96296
0.0943223	3.25926
0.143842	3.55556
0.193361	3.85185
0.238164	4.14815
0.290041	3.85185
0.337202	4.74074
0.384363	5.03704
0.436241	5.62963
0.483402	5.62963
0.530563	5.62963
0.577724	5.92593
0.63196	6.22222
0.681479	6.81481
0.726282	7.40741
0.778159	7.7037
0.827678	8.88889
0.87484	10.0741
0.922001	14.8148
0.969162	79.7037
