Adsorption isotherm of Nitrogen on IRMOF-1
DOI: 10.1007/s11090-011-9290-7
Adsorbate Nitrogen: InChIKey IJGRMHOSHXDMSA-UHFFFAOYSA-N
Temperature: 77 K
Tabular data in the source: 0
pressure (bar)	uptake (cm3(STP)/g)
0.00237322	1.92926
0.0071045	3.85852
0.0236185	4.82315
0.0566313	4.82315
0.0684292	5.78778
0.0967259	5.78778
0.146245	5.78778
0.195764	5.78778
0.242925	5.78778
0.29481	6.75241
0.339613	6.75241
0.386782	7.71704
0.438659	7.71704
0.485821	7.71704
0.532997	9.6463
0.580158	9.6463
0.632043	10.6109
0.679204	10.6109
0.728723	10.6109
0.782981	13.5048
0.825427	13.5048
0.872603	15.4341
0.924564	26.045
