Adsorption isotherm of Nitrogen on IRMOF-1
DOI: 10.1007/s11090-011-9290-7
Adsorbate Nitrogen: InChIKey IJGRMHOSHXDMSA-UHFFFAOYSA-N
Temperature: 77 K
Tabular data in the source: 0
pressure (bar)	uptake (cm3(STP)/g)
0.00211895	60.8392
0.00230859	12.5874
0.0031908	388.112
0.00338043	339.86
0.00372672	251.748
0.00395758	193.007
0.00406476	165.734
0.0041637	140.559
0.00779149	417.483
0.0100424	444.755
0.0169846	478.322
0.0263674	490.909
0.0357749	497.203
0.0592977	511.888
0.0804955	518.182
0.148838	528.671
0.193616	534.965
0.243111	541.259
0.297321	547.552
0.33975	551.748
0.389253	555.944
0.434048	558.042
0.488275	560.14
0.53307	562.238
0.582581	564.336
0.629733	566.434
0.681619	564.336
0.724048	568.531
0.82307	572.727
0.877297	574.825
0.924433	581.119
0.964471	593.706
