Adsorption isotherm of 17alpha-ethynylestradiol, Bisphenol A, Water on marine sediment from Victoria Harbour, Hong Kong (22°14.800/114°16.000)
DOI: 10.1016/j.marpolbul.2017.06.068
Article source: Figure 5
Adsorbate 17alpha-ethynylestradiol: InChIKey BFPYWIDHMRZLRN-SLHNCBLASA-N
Adsorbate Bisphenol A: InChIKey IISBACLAFKSPIT-UHFFFAOYSA-N
Adsorbate Water: InChIKey XLYOFNOQVPJJNP-UHFFFAOYSA-N
Kind: experiment
Temperature: 298 K
Tabular data in the source: 0
pressure (bar)	17alpha-ethynylestradiol fraction	17alpha-ethynylestradiol uptake (mg/kg)	Bisphenol A fraction	Bisphenol A uptake (mg/kg)	Water fraction	Water uptake (mg/kg)	total uptake (mg/kg)
1.01325			3.181	19.51			
1.01325			5.039	33.96			
1.01325			6.998	35.26			
1.01325			8.605	36.2			
1.01325			12.422	51.95			
1.01325			14.163	55.92			
1.01325			16.138	63.15			
1.01325			17.946	60.26			
1.01325			21.747	68.06			
1.01325			23.504	79.48			
1.01325			26.886	91.26			
1.01325			29.565	78.54			
1.01325			34.754	85.48			
1.01325			34.888	89.52			
