Adsorption isotherm of 17alpha-ethynylestradiol, Bisphenol A, Water on marine sediment from Victoria Harbour, Hong Kong (22°17.470/114°11.180)
DOI: 10.1016/j.marpolbul.2017.06.068
Article source: Figure 5
Adsorbate 17alpha-ethynylestradiol: InChIKey BFPYWIDHMRZLRN-SLHNCBLASA-N
Adsorbate Bisphenol A: InChIKey IISBACLAFKSPIT-UHFFFAOYSA-N
Adsorbate Water: InChIKey XLYOFNOQVPJJNP-UHFFFAOYSA-N
Kind: experiment
Temperature: 298 K
Tabular data in the source: 0
pressure (bar)	17alpha-ethynylestradiol fraction	17alpha-ethynylestradiol uptake (mg/kg)	Bisphenol A fraction	Bisphenol A uptake (mg/kg)	Water fraction	Water uptake (mg/kg)	total uptake (mg/kg)
1.01325			2.176	17.97			
1.01325			4.82	33.17			
1.01325			7.749	47.85			
1.01325			10.31	55.86			
1.01325			12.552	71.96			
1.01325			15.782	81.39			
1.01325			18.226	90			
1.01325			20.536	97.79			
1.01325			23.649	110.15			
1.01325			27.029	117.41			
1.01325			30.962	132.53			
1.01325			33.573	144.14			
1.01325			38.042	141.89			
1.01325			40.268	159.79			
1.01325			44.067	161.06			
