Adsorption isotherm of 17alpha-ethynylestradiol, Bisphenol A, Water on marine sediment from Victoria Harbour, Hong Kong (22°17.470/114°11.180)
DOI: 10.1016/j.marpolbul.2017.06.068
Article source: Figure 4
Adsorbate 17alpha-ethynylestradiol: InChIKey BFPYWIDHMRZLRN-SLHNCBLASA-N
Adsorbate Bisphenol A: InChIKey IISBACLAFKSPIT-UHFFFAOYSA-N
Adsorbate Water: InChIKey XLYOFNOQVPJJNP-UHFFFAOYSA-N
Kind: experiment
Temperature: 298 K
Tabular data in the source: 0
pressure (bar)	17alpha-ethynylestradiol fraction	17alpha-ethynylestradiol uptake (mg/kg)	Bisphenol A fraction	Bisphenol A uptake (mg/kg)	Water fraction	Water uptake (mg/kg)	total uptake (mg/kg)
1.01325	0.0333	1.482					
1.01325	0.1362	2.32					
1.01325	0.1989	3.867					
1.01325	0.2515	5.95					
1.01325	0.2933	8.268					
1.01325	0.3869	9					
1.01325	0.4365	11.19					
1.01325	0.5448	12.844					
1.01325	0.6439	13.533					
1.01325	0.7166	16.088					
1.01325	0.8102	19.116					
1.01325	0.9294	21.758					
1.01325	1.0393	21.159					
1.01325	1.2026	23.844					
1.01325	1.2405	27.838					
