Adsorption isotherm of Bisphenol A, Water on marine sediment from Victoria Harbour, Hong Kong (22°18.142/114°03.051)
DOI: 10.1016/j.marpolbul.2017.06.068
Article source: Figure 5
Adsorbate Bisphenol A: InChIKey IISBACLAFKSPIT-UHFFFAOYSA-N
Adsorbate Water: InChIKey XLYOFNOQVPJJNP-UHFFFAOYSA-N
Kind: experiment
Temperature: 298 K
Tabular data in the source: 0
pressure (bar)	Bisphenol A fraction	Bisphenol A uptake (mg/kg)	Water fraction	Water uptake (mg/kg)	total uptake (mg/kg)
1.01325	3.214	13.74			
1.01325	6.563	26.68			
1.01325	10.011	28.96			
1.01325	13.677	38.49			
1.01325	17.059	43.14			
1.01325	24.291	56.35			
1.01325	28.008	60.49			
1.01325	31.708	67.28			
1.01325	35.223	69.56			
1.01325	39.023	74.58			
1.01325	42.288	81.52			
1.01325	46.088	83.51			
1.01325	50.407	85.13			
1.01325	54.007	96.28			
