Adsorption isotherm of 17alpha-ethynylestradiol, Water on marine sediment from Victoria Harbour, Hong Kong (22°17.500/114°13.500)
DOI: 10.1016/j.marpolbul.2017.06.068
Article source: Figure 2
Adsorbate 17alpha-ethynylestradiol: InChIKey BFPYWIDHMRZLRN-SLHNCBLASA-N
Adsorbate Water: InChIKey XLYOFNOQVPJJNP-UHFFFAOYSA-N
Kind: experiment
Temperature: 298 K
Tabular data in the source: 0
pressure (bar)	17alpha-ethynylestradiol fraction	17alpha-ethynylestradiol uptake (mg/kg)	Water fraction	Water uptake (mg/kg)	total uptake (mg/kg)
1.01325	1.7339	29.886			
1.01325	2.0861	33.096			
1.01325	2.1665	44.652			
1.01325	2.6752	41.911			
1.01325	2.8801	50.763			
1.01325	3.3175	49.954			
1.01325	3.7047	56.294			
1.01325	4.596	66.155			
1.01325	4.6402	54.948			
1.01325	4.6689	65.074			
1.01325	4.9149	66.003			
1.01325	5.3234	62.991			
