Adsorption isotherm of 17alpha-ethynylestradiol, Bisphenol A, Water on marine sediment from Victoria Harbour, Hong Kong (22°18.142/114°03.051)
DOI: 10.1016/j.marpolbul.2017.06.068
Article source: Figure 5
Adsorbate 17alpha-ethynylestradiol: InChIKey BFPYWIDHMRZLRN-SLHNCBLASA-N
Adsorbate Bisphenol A: InChIKey IISBACLAFKSPIT-UHFFFAOYSA-N
Adsorbate Water: InChIKey XLYOFNOQVPJJNP-UHFFFAOYSA-N
Kind: experiment
Temperature: 298 K
Tabular data in the source: 0
pressure (bar)	17alpha-ethynylestradiol fraction	17alpha-ethynylestradiol uptake (mg/kg)	Bisphenol A fraction	Bisphenol A uptake (mg/kg)	Water fraction	Water uptake (mg/kg)	total uptake (mg/kg)
1.01325			2.829	11.31			
1.01325			6.027	17.51			
1.01325			11.92	35.16			
1.01325			14.816	40.11			
1.01325			18.198	46.02			
1.01325			20.792	53.78			
1.01325			23.304	55.54			
1.01325			26.903	63.15			
1.01325			30.1	71.5			
1.01325			34.286	81.62			
1.01325			37.902	82.79			
1.01325			41.853	84.55			
1.01325			44.849	95.64			
1.01325			48.733	92.15			
