Adsorption isotherm of 17alpha-ethynylestradiol, Water on marine sediment from Victoria Harbour, Hong Kong (22°18.142/114°03.051)
DOI: 10.1016/j.marpolbul.2017.06.068
Article source: Figure 2
Adsorbate 17alpha-ethynylestradiol: InChIKey BFPYWIDHMRZLRN-SLHNCBLASA-N
Adsorbate Water: InChIKey XLYOFNOQVPJJNP-UHFFFAOYSA-N
Kind: experiment
Temperature: 298 K
Tabular data in the source: 0
pressure (bar)	17alpha-ethynylestradiol fraction	17alpha-ethynylestradiol uptake (mg/kg)	Water fraction	Water uptake (mg/kg)	total uptake (mg/kg)
1.01325	0.6375	9.685			
1.01325	0.9244	19.296			
1.01325	1.4146	19.908			
1.01325	1.9459	24.441			
1.01325	2.3177	24.516			
1.01325	2.5803	31.089			
1.01325	3.0691	29.279			
1.01325	3.6534	36.965			
1.01325	4.2302	40.421			
1.01325	5.2851	53.372			
