Adsorption isotherm of 17alpha-ethynylestradiol, Water on marine sediment from Victoria Harbour, Hong Kong (22°17.470/114°11.180)
DOI: 10.1016/j.marpolbul.2017.06.068
Article source: Figure 4
Adsorbate 17alpha-ethynylestradiol: InChIKey BFPYWIDHMRZLRN-SLHNCBLASA-N
Adsorbate Water: InChIKey XLYOFNOQVPJJNP-UHFFFAOYSA-N
Kind: experiment
Temperature: 298 K
Tabular data in the source: 0
pressure (bar)	17alpha-ethynylestradiol fraction	17alpha-ethynylestradiol uptake (mg/kg)	Water fraction	Water uptake (mg/kg)	total uptake (mg/kg)
1.01325	0.1053	5.969			
1.01325	0.2879	11.488			
1.01325	0.5007	16.3			
1.01325	0.6818	20.939			
1.01325	0.8242	25.384			
1.01325	0.9922	31.182			
1.01325	1.2236	36.316			
1.01325	1.4	40.955			
1.01325	1.5355	48.062			
1.01325	1.8109	49.204			
1.01325	2.1406	52.257			
1.01325	2.2698	58.312			
1.01325	2.5268	70.916			
1.01325	2.6644	60.035			
1.01325	3.2793	67.464			
