Adsorption isotherm of Bisphenol A, Water on marine sediment from Victoria Harbour, Hong Kong (22°17.470/114°11.180)
DOI: 10.1016/j.marpolbul.2017.06.068
Article source: Figure 5
Adsorbate Bisphenol A: InChIKey IISBACLAFKSPIT-UHFFFAOYSA-N
Adsorbate Water: InChIKey XLYOFNOQVPJJNP-UHFFFAOYSA-N
Kind: experiment
Temperature: 298 K
Tabular data in the source: 0
pressure (bar)	Bisphenol A fraction	Bisphenol A uptake (mg/kg)	Water fraction	Water uptake (mg/kg)	total uptake (mg/kg)
1.01325	2.544	21.56			
1.01325	5.372	43.06			
1.01325	8.301	52.71			
1.01325	11.364	70.46			
1.01325	14.343	82.14			
1.01325	17.992	90.68			
1.01325	21.105	103.03			
1.01325	24.569	111.42			
1.01325	27.347	128.79			
1.01325	30.778	135.98			
1.01325	33.741	144.52			
1.01325	37.238	154.02			
1.01325	40.954	156.8			
1.01325	44.87	167.13			
1.01325	48.151	179.71			
