Adsorption isotherm of 17alpha-ethynylestradiol, Water on marine sediment from Victoria Harbour, Hong Kong (22°18.142/114°03.051)
DOI: 10.1016/j.marpolbul.2017.06.068
Article source: Figure 4
Adsorbate 17alpha-ethynylestradiol: InChIKey BFPYWIDHMRZLRN-SLHNCBLASA-N
Adsorbate Water: InChIKey XLYOFNOQVPJJNP-UHFFFAOYSA-N
Kind: experiment
Temperature: 298 K
Tabular data in the source: 0
pressure (bar)	17alpha-ethynylestradiol fraction	17alpha-ethynylestradiol uptake (mg/kg)	Water fraction	Water uptake (mg/kg)	total uptake (mg/kg)
1.01325	0.1693	4.853			
1.01325	0.3549	9.139			
1.01325	0.6079	12.647			
1.01325	0.7586	18.341			
1.01325	0.9636	22.291			
1.01325	1.2436	24.664			
1.01325	1.6165	25.46			
1.01325	1.8068	30.124			
1.01325	1.8515	38.173			
1.01325	2.2701	37.183			
1.01325	2.4317	42.435			
1.01325	2.4927	48.067			
1.01325	2.9097	48.38			
1.01325	3.0334	55.167			
1.01325	3.3714	58.632			
