Adsorption isotherm of 17alpha-ethynylestradiol, Bisphenol A, Water on marine sediment from Victoria Harbour, Hong Kong (22°18.142/114°03.051)
DOI: 10.1016/j.marpolbul.2017.06.068
Article source: Figure 4
Adsorbate 17alpha-ethynylestradiol: InChIKey BFPYWIDHMRZLRN-SLHNCBLASA-N
Adsorbate Bisphenol A: InChIKey IISBACLAFKSPIT-UHFFFAOYSA-N
Adsorbate Water: InChIKey XLYOFNOQVPJJNP-UHFFFAOYSA-N
Kind: experiment
Temperature: 298 K
Tabular data in the source: 0
pressure (bar)	17alpha-ethynylestradiol fraction	17alpha-ethynylestradiol uptake (mg/kg)	Bisphenol A fraction	Bisphenol A uptake (mg/kg)	Water fraction	Water uptake (mg/kg)	total uptake (mg/kg)
1.01325	0.2421	3.823					
1.01325	0.4772	7.689					
1.01325	0.6752	14.265					
1.01325	0.8964	15.188					
1.01325	1.1176	17.898					
1.01325	1.2699	25.967					
1.01325	1.5894	28.066					
1.01325	1.8749	25.585					
1.01325	2.1247	32.708					
1.01325	2.2716	39.809					
1.01325	2.28	45.21					
1.01325	2.4943	46.848					
1.01325	2.7418	49.221					
1.01325	3.3244	49.26					
1.01325	3.6307	54.281					
