Adsorption isotherm of 17alpha-ethynylestradiol, Water on marine sediment from Victoria Harbour, Hong Kong (22°14.800/114°16.000)
DOI: 10.1016/j.marpolbul.2017.06.068
Article source: Figure 2
Adsorbate 17alpha-ethynylestradiol: InChIKey BFPYWIDHMRZLRN-SLHNCBLASA-N
Adsorbate Water: InChIKey XLYOFNOQVPJJNP-UHFFFAOYSA-N
Kind: experiment
Temperature: 298 K
Tabular data in the source: 0
pressure (bar)	17alpha-ethynylestradiol fraction	17alpha-ethynylestradiol uptake (mg/kg)	Water fraction	Water uptake (mg/kg)	total uptake (mg/kg)
1.01325	0.553	31.459			
1.01325	1.01	33.932			
1.01325	1.4686	40.928			
1.01325	1.5143	51.942			
1.01325	1.7254	58.357			
1.01325	2.1353	57.739			
1.01325	2.5059	64			
1.01325	2.805	66.86			
1.01325	3.0739	78.106			
1.01325	3.7799	85.565			
1.01325	4.0046	83.671			
1.01325	4.0426	84.676			
1.01325	4.2204	99.749			
