Adsorption isotherm of 17alpha-ethynylestradiol, Bisphenol A, Water on marine sediment from Victoria Harbour, Hong Kong (22°14.800/114°16.000)
DOI: 10.1016/j.marpolbul.2017.06.068
Article source: Figure 5
Adsorbate 17alpha-ethynylestradiol: InChIKey BFPYWIDHMRZLRN-SLHNCBLASA-N
Adsorbate Bisphenol A: InChIKey IISBACLAFKSPIT-UHFFFAOYSA-N
Adsorbate Water: InChIKey XLYOFNOQVPJJNP-UHFFFAOYSA-N
Kind: experiment
Temperature: 298 K
Tabular data in the source: 0
pressure (bar)	17alpha-ethynylestradiol fraction	17alpha-ethynylestradiol uptake (mg/kg)	Bisphenol A fraction	Bisphenol A uptake (mg/kg)	Water fraction	Water uptake (mg/kg)	total uptake (mg/kg)
1.01325			2.059	16.55			
1.01325			4.721	31.07			
1.01325			7.349	43.5			
1.01325			9.911	51.81			
1.01325			12.874	64.6			
1.01325			15.536	74.28			
1.01325			18.331	82.95			
1.01325			21.161	92.41			
1.01325			24.09	98.7			
1.01325			27.054	109.68			
1.01325			30.017	116.11			
1.01325			32.494	122.25			
1.01325			35.324	128.25			
1.01325			38.32	133.45			
1.01325			40.999	138.44			
