Adsorption isotherm of 17alpha-ethynylestradiol, Bisphenol A, Water on marine sediment from Victoria Harbour, Hong Kong (22°17.470/114°11.180)
DOI: 10.1016/j.marpolbul.2017.06.068
Article source: Figure 4
Adsorbate 17alpha-ethynylestradiol: InChIKey BFPYWIDHMRZLRN-SLHNCBLASA-N
Adsorbate Bisphenol A: InChIKey IISBACLAFKSPIT-UHFFFAOYSA-N
Adsorbate Water: InChIKey XLYOFNOQVPJJNP-UHFFFAOYSA-N
Kind: experiment
Temperature: 298 K
Tabular data in the source: 0
pressure (bar)	17alpha-ethynylestradiol fraction	17alpha-ethynylestradiol uptake (mg/kg)	Bisphenol A fraction	Bisphenol A uptake (mg/kg)	Water fraction	Water uptake (mg/kg)	total uptake (mg/kg)
1.01325	0.1293	4.703					
1.01325	0.2933	7.968					
1.01325	0.479	12.393					
1.01325	0.6369	17.031					
1.01325	0.7855	19.824					
1.01325	1.047	23.391					
1.01325	1.2212	25.884					
1.01325	1.4534	36.92					
1.01325	1.4696	32.027					
1.01325	1.865	37.979					
1.01325	2.3231	43.824					
1.01325	2.5329	54.495					
1.01325	2.5583	48.249					
1.01325	2.8934	57.141					
