Adsorption isotherm of 17alpha-ethynylestradiol, Bisphenol A, Water on marine sediment from Victoria Harbour, Hong Kong (22°14.800/114°16.000)
DOI: 10.1016/j.marpolbul.2017.06.068
Article source: Figure 4
Adsorbate 17alpha-ethynylestradiol: InChIKey BFPYWIDHMRZLRN-SLHNCBLASA-N
Adsorbate Bisphenol A: InChIKey IISBACLAFKSPIT-UHFFFAOYSA-N
Adsorbate Water: InChIKey XLYOFNOQVPJJNP-UHFFFAOYSA-N
Kind: experiment
Temperature: 298 K
Tabular data in the source: 0
pressure (bar)	17alpha-ethynylestradiol fraction	17alpha-ethynylestradiol uptake (mg/kg)	Bisphenol A fraction	Bisphenol A uptake (mg/kg)	Water fraction	Water uptake (mg/kg)	total uptake (mg/kg)
1.01325	0.1037	2.767					
1.01325	0.2894	6.65					
1.01325	0.41	12.908					
1.01325	0.6112	14.415					
1.01325	0.9331	19.184					
1.01325	1.0066	18.317					
1.01325	1.1574	24.698					
1.01325	1.3145	28.064					
1.01325	1.5048	29.84					
1.01325	1.7021	34.755					
1.01325	1.8012	35.395					
1.01325	1.9992	38.533					
1.01325	2.0998	44.379					
1.01325	2.2561	41.858					
1.01325	2.3652	42.869					
