Adsorption isotherm of 17alpha-ethynylestradiol, Bisphenol A, Water on marine sediment from Victoria Harbour, Hong Kong (22°18.142/114°03.051)
DOI: 10.1016/j.marpolbul.2017.06.068
Article source: Figure 5
Adsorbate 17alpha-ethynylestradiol: InChIKey BFPYWIDHMRZLRN-SLHNCBLASA-N
Adsorbate Bisphenol A: InChIKey IISBACLAFKSPIT-UHFFFAOYSA-N
Adsorbate Water: InChIKey XLYOFNOQVPJJNP-UHFFFAOYSA-N
Kind: experiment
Temperature: 298 K
Tabular data in the source: 0
pressure (bar)	17alpha-ethynylestradiol fraction	17alpha-ethynylestradiol uptake (mg/kg)	Bisphenol A fraction	Bisphenol A uptake (mg/kg)	Water fraction	Water uptake (mg/kg)	total uptake (mg/kg)
1.01325			3.767	9.75			
1.01325			5.742	13.74			
1.01325			9.66	24.6			
1.01325			11.702	27.7			
1.01325			13.828	30.95			
1.01325			15.737	37.3			
1.01325			24.107	43.79			
1.01325			26.116	44.15			
1.01325			30.033	46.58			
1.01325			32.042	47.17			
1.01325			33.783	48.42			
1.01325			38.036	41.53			
1.01325			38.772	47.08			
