Adsorption isotherm of 17alpha-ethynylestradiol, Water on marine sediment from Victoria Harbour, Hong Kong (22°18.400/114°06.500)
DOI: 10.1016/j.marpolbul.2017.06.068
Article source: Figure 2
Adsorbate 17alpha-ethynylestradiol: InChIKey BFPYWIDHMRZLRN-SLHNCBLASA-N
Adsorbate Water: InChIKey XLYOFNOQVPJJNP-UHFFFAOYSA-N
Kind: experiment
Temperature: 298 K
Tabular data in the source: 0
pressure (bar)	17alpha-ethynylestradiol fraction	17alpha-ethynylestradiol uptake (mg/kg)	Water fraction	Water uptake (mg/kg)	total uptake (mg/kg)
1.01325	0.4632	15.071			
1.01325	0.7654	22.529			
1.01325	0.9901	34.295			
1.01325	1.5763	35.826			
1.01325	1.7707	45.247			
1.01325	1.9271	55.014			
1.01325	2.126	60.973			
1.01325	2.7016	56.273			
1.01325	2.9248	63.655			
1.01325	3.3197	67.419			
1.01325	3.7297	83.644			
1.01325	3.7828	92.259			
1.01325	3.8238	101.259			
1.01325	4.12	104.832			
