Adsorption isotherm of Bisphenol A, Water on marine sediment from Victoria Harbour, Hong Kong (22°14.800/114°16.000)
DOI: 10.1016/j.marpolbul.2017.06.068
Article source: Figure 5
Adsorbate Bisphenol A: InChIKey IISBACLAFKSPIT-UHFFFAOYSA-N
Adsorbate Water: InChIKey XLYOFNOQVPJJNP-UHFFFAOYSA-N
Kind: experiment
Temperature: 298 K
Tabular data in the source: 0
pressure (bar)	Bisphenol A fraction	Bisphenol A uptake (mg/kg)	Water fraction	Water uptake (mg/kg)	total uptake (mg/kg)
1.01325	3.03	23.05			
1.01325	6.345	40.03			
1.01325	10.346	56			
1.01325	13.393	71.75			
1.01325	17.411	85.33			
1.01325	21.144	97.54			
1.01325	24.877	109.39			
1.01325	28.878	117.92			
1.01325	32.561	127.1			
1.01325	36.161	138.22			
1.01325	40.597	145.52			
1.01325	43.845	156.21			
1.01325	47.813	162.43			
1.01325	51.663	168.86			
