Adsorption isotherm of 17alpha-ethynylestradiol, Bisphenol A, Water on marine sediment from Victoria Harbour, Hong Kong (22°14.800/114°16.000)
DOI: 10.1016/j.marpolbul.2017.06.068
Article source: Figure 4
Adsorbate 17alpha-ethynylestradiol: InChIKey BFPYWIDHMRZLRN-SLHNCBLASA-N
Adsorbate Bisphenol A: InChIKey IISBACLAFKSPIT-UHFFFAOYSA-N
Adsorbate Water: InChIKey XLYOFNOQVPJJNP-UHFFFAOYSA-N
Kind: experiment
Temperature: 298 K
Tabular data in the source: 0
pressure (bar)	17alpha-ethynylestradiol fraction	17alpha-ethynylestradiol uptake (mg/kg)	Bisphenol A fraction	Bisphenol A uptake (mg/kg)	Water fraction	Water uptake (mg/kg)	total uptake (mg/kg)
1.01325	0.2267	7.724					
1.01325	0.5748	13.299					
1.01325	0.9973	18.213					
1.01325	1.2325	25.937					
1.01325	1.7378	31.181					
1.01325	2.089	37.769					
1.01325	2.6191	39.46					
1.01325	2.7776	49.147					
