Adsorption isotherm of 17alpha-ethynylestradiol, Bisphenol A, Water on marine sediment from Victoria Harbour, Hong Kong (22°17.470/114°11.180)
DOI: 10.1016/j.marpolbul.2017.06.068
Article source: Figure 5
Adsorbate 17alpha-ethynylestradiol: InChIKey BFPYWIDHMRZLRN-SLHNCBLASA-N
Adsorbate Bisphenol A: InChIKey IISBACLAFKSPIT-UHFFFAOYSA-N
Adsorbate Water: InChIKey XLYOFNOQVPJJNP-UHFFFAOYSA-N
Kind: experiment
Temperature: 298 K
Tabular data in the source: 0
pressure (bar)	17alpha-ethynylestradiol fraction	17alpha-ethynylestradiol uptake (mg/kg)	Bisphenol A fraction	Bisphenol A uptake (mg/kg)	Water fraction	Water uptake (mg/kg)	total uptake (mg/kg)
1.01325			2.946	18.94			
1.01325			4.653	25.91			
1.01325			8.117	44.18			
1.01325			9.908	52.71			
1.01325			11.866	55.93			
1.01325			13.808	62.82			
1.01325			20.569	86.56			
1.01325			22.527	95.84			
1.01325			26.159	98.69			
1.01325			30.176	101.16			
1.01325			32.351	98.24			
1.01325			34.243	95.1			
1.01325			35.833	98.17			
