Adsorption isotherm of 17alpha-ethynylestradiol, Water on marine sediment from Victoria Harbour, Hong Kong (22°17.470/114°11.180)
DOI: 10.1016/j.marpolbul.2017.06.068
Article source: Figure 2
Adsorbate 17alpha-ethynylestradiol: InChIKey BFPYWIDHMRZLRN-SLHNCBLASA-N
Adsorbate Water: InChIKey XLYOFNOQVPJJNP-UHFFFAOYSA-N
Kind: experiment
Temperature: 298 K
Tabular data in the source: 0
pressure (bar)	17alpha-ethynylestradiol fraction	17alpha-ethynylestradiol uptake (mg/kg)	Water fraction	Water uptake (mg/kg)	total uptake (mg/kg)
1.01325	0.4464	16			
1.01325	0.8988	18.885			
1.01325	1.1721	27.192			
1.01325	1.793	28.346			
1.01325	1.9524	37.962			
1.01325	2.1544	47.5			
1.01325	2.6432	42.769			
1.01325	2.9787	46.077			
1.01325	4.3482	63.154			
1.01325	4.4848	68.846			
1.01325	4.8386	60.769			
1.01325	5.0724	63.077			
1.01325	5.0784	73.038			
