Adsorption isotherm of 17alpha-ethynylestradiol, Water on marine sediment from Victoria Harbour, Hong Kong (22°14.800/114°16.000)
DOI: 10.1016/j.marpolbul.2017.06.068
Article source: Figure 4
Adsorbate 17alpha-ethynylestradiol: InChIKey BFPYWIDHMRZLRN-SLHNCBLASA-N
Adsorbate Water: InChIKey XLYOFNOQVPJJNP-UHFFFAOYSA-N
Kind: experiment
Temperature: 298 K
Tabular data in the source: 0
pressure (bar)	17alpha-ethynylestradiol fraction	17alpha-ethynylestradiol uptake (mg/kg)	Water fraction	Water uptake (mg/kg)	total uptake (mg/kg)
1.01325	0.2251	8.509			
1.01325	0.5083	16.708			
1.01325	0.9617	22.902			
1.01325	1.7539	37.936			
1.01325	2.0626	44.461			
1.01325	2.6445	47.557			
