Adsorption isotherm of Benzene on Silicalite MFI
DOI: 10.1039/B406051b
Adsorbate Benzene: InChIKey UHOVQNZJYSORNB-UHFFFAOYSA-N
Temperature: 373 K
Tabular data in the source: 0
pressure (bar)	uptake (mmol/g)
0.00119322	0.211921
0.00235868	0.307285
0.00390381	0.397351
0.00429987	0.460927
0.00775591	0.577483
0.0104375	0.64106
0.0138822	0.709934
0.0180849	0.762914
0.0238101	0.810596
0.0280078	0.842384
0.0352503	0.863576
0.0417298	0.87947
0.0489723	0.900662
0.059261	0.916556
0.067645	0.93245
0.0756469	0.943046
0.0847903	0.948344
0.0943133	0.948344
