Adsorption isotherm of Benzene on Silicalite MFI
DOI: 10.1039/B406051b
Adsorbate Benzene: InChIKey UHOVQNZJYSORNB-UHFFFAOYSA-N
Temperature: 435 K
Tabular data in the source: 0
pressure (bar)	uptake (mmol/g)
0.00881413	0.13054
0.0130184	0.172547
0.0180649	0.219235
0.0260614	0.275328
0.0290065	0.298686
0.0327971	0.317423
0.0374298	0.340841
0.0424845	0.364273
0.0492267	0.387764
0.0568127	0.411284
0.0610268	0.425385
0.0690381	0.439618
0.0762038	0.458472
0.0816836	0.472617
0.0892746	0.482184
0.0960217	0.491722
0.101925	0.50123
0.109096	0.506132
