Adsorption isotherm of Benzene on Silicalite MFI
DOI: 10.1039/B406051b
Adsorbate Benzene: InChIKey UHOVQNZJYSORNB-UHFFFAOYSA-N
Temperature: 348 K
Tabular data in the source: 0
pressure (bar)	uptake (mmol/g)
0.000338502	0.237221
0.000734239	0.311654
0.00319533	0.511739
0.00528357	0.572277
0.0090627	0.623572
0.0149562	0.660987
0.0221187	0.689144
0.0335019	0.712797
0.0474181	0.731887
0.0600686	0.750933
0.0735645	0.765357
0.0862166	0.779752
0.101824	0.789599
