Adsorption isotherm of Benzene on Silicalite MFI
DOI: 10.1039/B406051b
Adsorbate Benzene: InChIKey UHOVQNZJYSORNB-UHFFFAOYSA-N
Temperature: 373 K
Tabular data in the source: 0
pressure (bar)	uptake (mmol/g)
0.00242184	0.311712
0.00451172	0.367599
0.0057578	0.423457
0.00910358	0.507294
0.01667	0.586628
0.0242495	0.628753
0.0305715	0.647578
0.0360529	0.657072
0.0423782	0.666595
0.0461736	0.671378
0.0512348	0.676206
0.057982	0.685744
0.0630448	0.68592
0.068106	0.690748
0.0748547	0.695635
0.0816051	0.69587
