Adsorption isotherm of Benzene on Silicalite MFI
DOI: 10.1039/B406051b
Adsorbate Benzene: InChIKey UHOVQNZJYSORNB-UHFFFAOYSA-N
Temperature: 273 K
Tabular data in the source: 0
pressure (bar)	uptake (mmol/g)
7.35e-06	0.205128
1.25e-05	0.348718
6.03e-05	0.0820513
7.25e-05	0.423932
7.77e-05	0.567521
8.01e-05	0.635897
8.33e-05	0.724786
8.55e-05	0.786325
0.000145073	0.847863
0.000204376	0.902564
0.000206337	0.957265
0.000437669	1.01197
0.000669247	1.0735
0.000901315	1.14872
0.00124733	1.20342
0.00164996	1.23761
0.00205332	1.29231
0.00262896	1.35385
0.00366432	1.44274
0.00492856	1.51795
0.00590559	1.57949
0.00728281	1.60684
0.0095209	1.6547
0.0138224	1.67521
