Adsorption isotherm of Benzene on Silicalite MFI
DOI: 10.1039/B406051b
Adsorbate Benzene: InChIKey UHOVQNZJYSORNB-UHFFFAOYSA-N
Temperature: 395 K
Tabular data in the source: 0
pressure (bar)	uptake (mmol/g)
0.00193614	0.13245
0.00693226	0.317881
0.0157389	0.508609
0.0268158	0.635762
0.0474121	0.74702
0.0660898	0.8
0.0969608	0.868874
