Adsorption isotherm of Benzene on Silicalite MFI
DOI: 10.1039/B406051b
Adsorbate Benzene: InChIKey UHOVQNZJYSORNB-UHFFFAOYSA-N
Temperature: 415 K
Tabular data in the source: 0
pressure (bar)	uptake (mmol/g)
0.00124772	0.0512063
0.00250197	0.0838082
0.00417159	0.135029
0.0104592	0.251528
0.018024	0.335513
0.0298062	0.424296
0.0491858	0.504042
0.0656236	0.551127
0.0850196	0.584361
0.109904	0.608485
