Adsorption isotherm of Benzene on Silicalite MFI
DOI: 10.1039/B406051b
Adsorbate Benzene: InChIKey UHOVQNZJYSORNB-UHFFFAOYSA-N
Temperature: 395 K
Tabular data in the source: 0
pressure (bar)	uptake (mmol/g)
0.00232084	0.148344
0.00424185	0.217219
0.00539722	0.270199
0.0100011	0.407947
0.0126814	0.466225
0.0161236	0.524503
0.0191798	0.561589
0.0233812	0.609272
0.0294873	0.656954
0.0329219	0.683444
0.0378789	0.704636
0.0428385	0.736424
0.0500823	0.762914
0.0565617	0.778808
0.0615187	0.8
0.0672338	0.805298
0.0740942	0.821192
0.0817151	0.831788
0.0885742	0.842384
0.0954333	0.85298
