Adsorption isotherm of Benzene on Silicalite MFI
DOI: 10.1039/B406051b
Adsorbate Benzene: InChIKey UHOVQNZJYSORNB-UHFFFAOYSA-N
Temperature: 415 K
Tabular data in the source: 0
pressure (bar)	uptake (mmol/g)
0.00376277	0.0978057
0.00543238	0.149027
0.00668501	0.18628
0.00878143	0.223562
0.0121403	0.270191
0.0155008	0.312169
0.0201253	0.358842
0.0251734	0.400878
0.0302232	0.438264
0.0348575	0.45703
0.0403357	0.475826
0.0462341	0.499287
0.0533983	0.522793
0.0597235	0.532316
0.0668909	0.54652
0.0732146	0.560694
0.0803836	0.570246
0.0871291	0.584435
0.0938779	0.589322
0.10147	0.594238
0.107797	0.59911
