Adsorption isotherm of Benzene on Silicalite MFI
DOI: 10.1039/B406051b
Adsorbate Benzene: InChIKey UHOVQNZJYSORNB-UHFFFAOYSA-N
Temperature: 395 K
Tabular data in the source: 0
pressure (bar)	uptake (mmol/g)
0.00206045	0.139607
0.00414052	0.2234
0.00916245	0.339855
0.0133537	0.419071
0.0272339	0.540485
0.0411386	0.592133
0.0681239	0.639586
0.0989145	0.663916
