Adsorption isotherm of Benzene on Silicalite MFI
DOI: 10.1039/B406051b
Adsorbate Benzene: InChIKey UHOVQNZJYSORNB-UHFFFAOYSA-N
Temperature: 435 K
Tabular data in the source: 0
pressure (bar)	uptake (mmol/g)
0.00153125	0.0317881
0.00421031	0.0847682
0.00841054	0.127152
0.0362733	0.360265
0.0663976	0.492715
0.107183	0.603974
