Adsorption isotherm of Benzene on Silicalite MFI
DOI: 10.1039/B406051b
Adsorbate Benzene: InChIKey UHOVQNZJYSORNB-UHFFFAOYSA-N
Temperature: 323 K
Tabular data in the source: 0
pressure (bar)	uptake (mmol/g)
0.000925815	0.688742
0.00172045	0.82649
0.00211525	0.884768
0.00289727	0.969536
0.00367173	1.02252
0.00558894	1.0755
0.00864766	1.12318
0.0128441	1.14967
0.0166584	1.17086
0.0204701	1.18146
0.0246615	1.18675
0.0303753	1.18675
0.0368535	1.19735
0.0444732	1.20265
0.0486633	1.20265
0.0520916	1.20265
0.0581863	1.20265
0.0627599	1.21325
0.0684725	1.20795
0.0718995	1.20265
0.0772336	1.20795
0.0837106	1.21325
0.0909481	1.21325
0.0951382	1.21325
