Adsorption isotherm of Benzene on Silicalite MFI
DOI: 10.1039/B406051b
Adsorbate Benzene: InChIKey UHOVQNZJYSORNB-UHFFFAOYSA-N
Temperature: 435 K
Tabular data in the source: 0
pressure (bar)	uptake (mmol/g)
0.000837261	0.0186339
0.00167125	0.0465699
0.00335068	0.0698843
0.00629418	0.097894
0.0109138	0.15852
0.0214336	0.237957
0.034905	0.322148
0.0530205	0.397199
0.07241	0.449038
0.111199	0.52481
