Adsorption isotherm of Benzene on Silicalite MFI
DOI: 10.1039/B406051b
Adsorbate Benzene: InChIKey UHOVQNZJYSORNB-UHFFFAOYSA-N
Temperature: 415 K
Tabular data in the source: 0
pressure (bar)	uptake (mmol/g)
0.00192605	0.0900662
0.00613762	0.180132
0.0118767	0.286093
0.0202822	0.392053
0.0336421	0.508609
0.0550002	0.619868
0.0927366	0.725828
