Adsorption isotherm of Benzene on Silicalite MFI
DOI: 10.1039/B406051b
Adsorbate Benzene: InChIKey UHOVQNZJYSORNB-UHFFFAOYSA-N
Temperature: 373 K
Tabular data in the source: 0
pressure (bar)	uptake (mmol/g)
0.0024382	0.265201
0.00409473	0.353631
0.00701533	0.446756
0.0124641	0.549272
0.0280433	0.638188
0.0402687	0.666521
0.0541865	0.68096
0.0841349	0.70061
