Adsorption isotherm of Benzene on Silicalite MFI
DOI: 10.1039/B406051b
Adsorbate Benzene: InChIKey UHOVQNZJYSORNB-UHFFFAOYSA-N
Temperature: 348 K
Tabular data in the source: 0
pressure (bar)	uptake (mmol/g)
0.00196893	0.270199
0.00274843	0.344371
0.00352541	0.407947
0.00621709	0.513907
0.00813683	0.577483
0.0100553	0.635762
0.0146491	0.731126
0.017704	0.762914
0.021903	0.8
0.0245745	0.821192
0.0287684	0.837086
0.0325814	0.85298
0.0367765	0.874172
0.0428763	0.895364
0.0485914	0.900662
0.0558327	0.916556
0.0607872	0.927152
0.0668819	0.927152
0.0710733	0.93245
0.0767896	0.943046
0.0844081	0.943046
0.0905041	0.948344
0.0943145	0.953642
