Adsorption isotherm of Benzene on Silicalite MFI
DOI: 10.1039/B406051b
Adsorbate Benzene: InChIKey UHOVQNZJYSORNB-UHFFFAOYSA-N
Temperature: 323 K
Tabular data in the source: 0
pressure (bar)	uptake (mmol/g)
0.000494441	0.476821
0.000920769	0.66755
0.00132566	0.768212
0.00210516	0.842384
0.00479683	0.948344
0.0151145	1.08609
0.0208371	1.12318
0.0277013	1.15497
0.0341807	1.17086
0.0406602	1.18675
0.0540025	1.22914
0.0604819	1.24503
0.067341	1.25563
0.0734396	1.27152
0.0783941	1.28212
0.0963037	1.30861
