Adsorption isotherm of Benzene on Silicalite MFI
DOI: 10.1039/B406051b
Adsorbate Benzene: InChIKey UHOVQNZJYSORNB-UHFFFAOYSA-N
Temperature: 273 K
Tabular data in the source: 0
pressure (bar)	uptake (mmol/g)
5.71e-05	0.31145
0.000114276	0.574046
0.000171414	0.653435
0.000514243	0.720611
0.000799934	0.732824
0.00102849	0.757252
0.00108562	0.928244
0.00114276	1.05649
0.00125704	1.22137
0.00137132	1.27023
0.00165701	1.30687
0.00205697	1.34351
0.00262836	1.35573
0.00319974	1.38015
0.00405681	1.39237
0.0055424	1.40458
0.00902783	1.42901
0.0135417	1.43511
0.0137132	1.45344
