Adsorption isotherm of Benzene on Silicalite MFI
DOI: 10.1039/B406051b
Adsorbate Benzene: InChIKey UHOVQNZJYSORNB-UHFFFAOYSA-N
Temperature: 373 K
Tabular data in the source: 0
pressure (bar)	uptake (mmol/g)
0.000804727	0.180132
0.00235994	0.312583
0.00313818	0.381457
0.00698523	0.540397
0.0115828	0.651656
0.0211336	0.768212
0.040587	0.87947
0.0657429	0.943046
0.0954636	0.980132
