Adsorption isotherm of Benzene on Silicalite MFI
DOI: 10.1039/B406051b
Adsorbate Benzene: InChIKey UHOVQNZJYSORNB-UHFFFAOYSA-N
Temperature: 415 K
Tabular data in the source: 0
pressure (bar)	uptake (mmol/g)
0.0015363	0.0529801
0.00345478	0.111258
0.00498981	0.15894
0.00766887	0.211921
0.0107276	0.259603
0.0141685	0.312583
0.0176069	0.354967
0.0214287	0.407947
0.0248646	0.439735
0.0283004	0.471523
0.0321172	0.503311
0.0351696	0.524503
0.0386017	0.540397
0.0427981	0.566887
0.0496623	0.598675
0.0569061	0.625166
0.0618631	0.646358
0.0675807	0.662252
0.0725364	0.678146
0.078254	0.69404
0.0847335	0.709934
0.0915926	0.72053
