Adsorption isotherm of Benzene on Silicalite MFI
DOI: 10.1039/B406051b
Adsorbate Benzene: InChIKey UHOVQNZJYSORNB-UHFFFAOYSA-N
Temperature: 303 K
Tabular data in the source: 0
pressure (bar)	uptake (mmol/g)
0.000470501	0.383324
0.000881828	0.517211
0.00128883	0.632847
0.0035836	0.706112
0.00586827	0.736791
0.00928878	0.755432
0.0119992	0.980837
0.0142911	1.04193
0.0173393	1.09095
0.0215247	1.13401
0.0226706	1.16456
0.025332	1.18312
0.0272429	1.23809
0.031053	1.29936
0.0344793	1.34234
0.0409364	1.36132
0.0530886	1.38704
0.0659986	1.40677
0.0796705	1.43875
0.0979002	1.48341
