Adsorption isotherm of Benzene on Silicalite MFI
DOI: 10.1039/B406051b
Adsorbate Benzene: InChIKey UHOVQNZJYSORNB-UHFFFAOYSA-N
Temperature: 323 K
Tabular data in the source: 0
pressure (bar)	uptake (mmol/g)
0.00105802	0.590735
0.00109073	0.497712
0.00315118	0.637319
0.0056695	0.674616
0.0111411	0.712017
0.016616	0.740115
0.023355	0.772908
0.029677	0.791733
0.0330473	0.805804
0.0355705	0.829148
0.0406186	0.871184
0.0431386	0.903831
0.0465023	0.936506
0.0507099	0.969211
0.0549175	1.00192
0.0591283	1.02532
0.0620734	1.04868
0.0658656	1.06276
0.068814	1.07682
0.0726046	1.09556
0.077239	1.11432
0.0810312	1.12841
0.084825	1.13784
0.0890407	1.14729
0.0932549	1.16139
