Adsorption isotherm of Benzene on Silicalite MFI
DOI: 10.1039/B406051b
Adsorbate Benzene: InChIKey UHOVQNZJYSORNB-UHFFFAOYSA-N
Temperature: 323 K
Tabular data in the source: 0
pressure (bar)	uptake (mmol/g)
0.000734239	0.311654
0.00109563	0.483759
0.00190019	0.595415
0.00398844	0.655953
0.00777083	0.697946
0.0140895	0.726073
0.0195644	0.754171
0.0271472	0.786994
0.0355754	0.815195
0.041881	0.880531
0.0490239	0.964501
0.0624937	1.05334
0.0683921	1.0768
0.0940987	1.16142
