Adsorption isotherm of Benzene on Silicalite MFI
DOI: 10.1039/B406051b
Adsorbate Benzene: InChIKey UHOVQNZJYSORNB-UHFFFAOYSA-N
Temperature: 348 K
Tabular data in the source: 0
pressure (bar)	uptake (mmol/g)
7.57e-05	0.317881
0.00011352	0.476821
0.00474512	0.731126
0.00972862	0.863576
0.0192731	0.953642
0.0345251	1.01722
0.0596785	1.0702
0.0810164	1.09669
