Adsorption isotherm of Benzene on Silicalite MFI
DOI: 10.1039/B406051b
Adsorbate Benzene: InChIKey UHOVQNZJYSORNB-UHFFFAOYSA-N
Temperature: 395 K
Tabular data in the source: 0
pressure (bar)	uptake (mmol/g)
0.0028879	0.186147
0.00538823	0.274607
0.00915591	0.358459
0.011671	0.405058
0.0150331	0.442385
0.0188155	0.484377
0.0234449	0.517097
0.0310261	0.554571
0.0390324	0.582757
0.0424027	0.596828
0.0508342	0.615727
0.0537875	0.61583
0.0584251	0.625294
0.0643301	0.630151
0.0693896	0.63963
0.0761384	0.644517
0.0816215	0.649359
0.089636	0.65429
0.0972286	0.659206
