Adsorption isotherm of Benzene on Silicalite MFI
DOI: 10.1039/B406051b
Adsorbate Benzene: InChIKey UHOVQNZJYSORNB-UHFFFAOYSA-N
Temperature: 348 K
Tabular data in the source: 0
pressure (bar)	uptake (mmol/g)
0.00155842	0.367496
0.00195742	0.432626
0.00320023	0.497786
0.00569566	0.600199
0.00905452	0.646828
0.0124199	0.674852
0.0170527	0.698269
0.0225341	0.707763
0.0271717	0.717227
0.0326532	0.726721
0.0406677	0.731651
0.0482619	0.731916
0.056278	0.732196
0.063869	0.741763
0.0727289	0.742072
0.0807434	0.747003
0.08665	0.747209
0.0921347	0.7474
0.0976194	0.747592
0.101417	0.747724
