Adsorption isotherm of Benzene on Silicalite MFI
DOI: 10.1039/B406051b
Adsorbate Benzene: InChIKey UHOVQNZJYSORNB-UHFFFAOYSA-N
Temperature: 435 K
Tabular data in the source: 0
pressure (bar)	uptake (mmol/g)
0.00191217	0.0317881
0.00382435	0.0635762
0.00688307	0.111258
0.0114655	0.15894
0.015667	0.206623
0.0229196	0.270199
0.0274995	0.307285
0.0343661	0.349669
0.0412341	0.397351
0.0469542	0.423841
0.053054	0.445033
0.0576301	0.466225
0.062968	0.487417
0.0705927	0.513907
0.0766913	0.529801
0.0843147	0.550993
0.0911751	0.566887
0.0976533	0.577483
0.105659	0.603974
