Adsorption isotherm of Methane on IRMOF-6
DOI: 10.1021/La0355500
Adsorbate Methane: InChIKey VNWKTOKETHGBQD-UHFFFAOYSA-N
Temperature: 298 K
Tabular data in the source: 0
pressure (bar)	uptake (cm3(STP)/cm3)
0.33963	-0.0781213
2.19924	25.5941
4.14741	47.9891
7.86663	83.4933
10.7889	105.342
15.0394	134.838
18.1388	152.863
22.1237	174.166
25.6658	186.729
29.2079	196.014
35.2295	209.124
37.1777	214.586
