Adsorption isotherm of Methane on IRMOF-992
DOI: 10.1021/La0355500
Adsorbate Methane: InChIKey VNWKTOKETHGBQD-UHFFFAOYSA-N
Temperature: 298 K
Tabular data in the source: 0
pressure (bar)	uptake (cm3(STP)/cm3)
0.33963	2.65297
2.19924	30.5101
7.95518	75.8462
10.7889	88.4093
15.0394	103.157
18.3159	109.166
22.3893	117.359
25.7543	120.636
29.2079	125.552
35.0524	128.283
36.8234	129.376
