Adsorption isotherm of Methane on IRMOF-1
DOI: 10.1021/La0355500
Adsorbate Methane: InChIKey VNWKTOKETHGBQD-UHFFFAOYSA-N
Temperature: 298 K
Tabular data in the source: 0
pressure (bar)	uptake (cm3(STP)/cm3)
0.693842	7.81867
2.37635	15.3565
4.67872	25.1884
10.7889	52.0624
13.9768	65.1716
18.7586	83.5246
23.9833	101.877
27.1712	107.449
33.1928	119.575
34.9638	121.541
38.3288	125.802
40.4541	129.079
