Adsorption isotherm of Methane on IRMOF-6
DOI: 10.1021/La0355500
Adsorbate Methane: InChIKey VNWKTOKETHGBQD-UHFFFAOYSA-N
Temperature: 298 K
Tabular data in the source: 0
pressure (bar)	uptake (cm3(STP)/cm3)
0.251077	-0.0468728
2.28779	17.3229
4.14741	28.138
10.7889	57.3061
15.128	70.0876
18.3159	78.9363
22.2122	86.8019
25.7543	92.0456
29.2964	99.5834
35.2295	108.432
37.0005	109.088
