Adsorption isotherm of Methane on IRMOF-6
DOI: 10.1021/La0355500
Adsorbate Methane: InChIKey VNWKTOKETHGBQD-UHFFFAOYSA-N
Temperature: 298 K
Tabular data in the source: 0
pressure (bar)	uptake (cm3(STP)/cm3)
0.0739709	2.57498
1.66792	19.617
5.65281	41.2472
7.86663	54.6842
14.9509	88.4405
18.3159	102.533
20.7954	110.071
29.1193	130.39
32.3072	139.894
35.318	146.449
