Adsorption isotherm of Methane on IRMOF-6
DOI: 10.1021/La0355500
Adsorbate Methane: InChIKey VNWKTOKETHGBQD-UHFFFAOYSA-N
Temperature: 298 K
Tabular data in the source: 0
pressure (bar)	uptake (cm3(STP)/cm3)
0.33963	0.608589
4.14741	30.4321
8.04374	55.012
10.7889	68.1212
15.128	87.4573
18.4044	99.2556
22.4779	112.693
25.6658	120.886
29.2079	126.785
35.0524	135.306
37.0005	139.567
