Adsorption isotherm of Methane on IRMOF-993
DOI: 10.1021/La0355500
Adsorbate Methane: InChIKey VNWKTOKETHGBQD-UHFFFAOYSA-N
Temperature: 298 K
Tabular data in the source: 0
pressure (bar)	uptake (cm3(STP)/cm3)
2.19924	48.4417
4.14741	76.8451
7.95518	115.299
10.7003	131.03
14.9509	150.257
18.2273	160.307
22.3008	169.047
25.5772	172.98
29.2079	176.475
35.1409	181.282
36.912	184.341
