Adsorption isotherm of Methane on IRMOF-993
DOI: 10.1021/La0355500
Adsorbate Methane: InChIKey VNWKTOKETHGBQD-UHFFFAOYSA-N
Temperature: 298 K
Tabular data in the source: 0
pressure (bar)	uptake (cm3(STP)/cm3)
0.33963	2.65297
2.19924	60.0059
4.14741	95.5101
7.86663	143.577
10.7003	162.695
14.9509	186.182
18.3159	198.199
22.2122	208.577
25.6658	214.04
29.2079	218.409
35.1409	223.871
36.6463	228.241
