Adsorption isotherm of Methane on IRMOF-992
DOI: 10.1021/La0355500
Adsorbate Methane: InChIKey VNWKTOKETHGBQD-UHFFFAOYSA-N
Temperature: 298 K
Tabular data in the source: 0
pressure (bar)	uptake (cm3(STP)/cm3)
2.37635	36.6434
4.05885	62.8619
8.04374	97.8199
10.8774	113.988
15.0394	134.089
18.3159	144.139
22.3893	152.879
25.7543	156.811
29.2079	162.492
35.1409	168.173
37.0005	168.61
