Adsorption isotherm of Methane on IRMOF-6
DOI: 10.1021/La0355500
Adsorbate Methane: InChIKey VNWKTOKETHGBQD-UHFFFAOYSA-N
Temperature: 298 K
Tabular data in the source: 0
pressure (bar)	uptake (cm3(STP)/cm3)
0.251077	0.93632
1.57937	10.7683
5.56425	38.9531
7.86663	53.0456
11.3202	71.7262
15.0394	88.4405
18.2273	99.9111
20.7068	106.793
28.9422	126.457
32.2187	131.046
35.2295	136.617
