Adsorption isotherm of Methane on IRMOF-6
DOI: 10.1021/La0355500
Adsorbate Methane: InChIKey VNWKTOKETHGBQD-UHFFFAOYSA-N
Temperature: 298 K
Tabular data in the source: 0
pressure (bar)	uptake (cm3(STP)/cm3)
0.251077	-0.062497
2.11069	16.9795
4.23596	30.5257
8.04374	54.5594
10.7889	68.9795
15.0394	87.3325
18.4044	99.1308
22.3008	113.114
25.7543	120.98
29.2964	127.971
35.2295	135.4
37.0891	140.206
