Adsorption isotherm of Methane on IRMOF-1
DOI: 10.1021/La0355500
Adsorbate Methane: InChIKey VNWKTOKETHGBQD-UHFFFAOYSA-N
Temperature: 298 K
Tabular data in the source: 0
pressure (bar)	uptake (cm3(STP)/cm3)
0.870947	5.52456
3.52754	18.9615
7.42386	38.2977
10.8774	54.0288
14.0653	68.4489
18.9357	87.1296
24.7802	106.466
27.3483	112.365
29.9163	117.281
34.8753	128.751
40.3656	137.928
