Adsorption isotherm of Methane on IRMOF-6
DOI: 10.1021/La0355500
Adsorbate Methane: InChIKey VNWKTOKETHGBQD-UHFFFAOYSA-N
Temperature: 298 K
Tabular data in the source: 0
pressure (bar)	uptake (cm3(STP)/cm3)
0.251077	0.608589
2.37635	23.222
4.14741	37.9699
8.13229	65.1716
10.7889	75.9867
15.128	92.0456
22.5664	107.121
25.8429	111.382
29.2079	114.987
35.2295	119.575
36.912	120.558
