Adsorption isotherm of Nitrogen on EMI-TFSA@ZIF-8
DOI: 10.1002/anie.201406011
Adsorbate Nitrogen: InChIKey IJGRMHOSHXDMSA-UHFFFAOYSA-N
Temperature: 77 K
Tabular data in the source: 0
pressure (bar)	uptake (cm3(STP)/g)
0.00471612	0.00485437
0.00707417	29.1299
0.00943223	92.0096
0.0117903	205.503
0.042445	265.27
0.0943224	268.256
0.191003	271.171
0.280609	274.097
0.466896	276.87
0.664972	281.159
0.851259	287
0.874839	283.895
0.877198	286.959
