Adsorption isotherm of Nitrogen on ZIF-8
DOI: 10.1002/anie.201406011
Adsorbate Nitrogen: InChIKey IJGRMHOSHXDMSA-UHFFFAOYSA-N
Temperature: 77 K
Tabular data in the source: 0
pressure (bar)	uptake (cm3(STP)/g)
0	0
0.00235805	82.8109
0.00235805	110.422
0.00471612	110.422
0.00471612	142.634
0.00707417	142.634
0.0117903	311.331
0.0235805	372.662
0.0542353	380.282
0.0919643	381.757
0.186287	384.675
0.278251	386.064
0.471612	388.826
0.664972	390.054
0.853617	392.824
0.907852	395.806
