Adsorption isotherm of Acetylene on UTSA-50a
DOI: 10.1039/C2ta00155a
Adsorbate Acetylene: InChIKey HSFWRNGVRCDJHI-UHFFFAOYSA-N
Temperature: 296 K
Tabular data in the source: 0
pressure (bar)	uptake (cm3(STP)/g)
0.00446995	1.56662
0.00934095	13.6756
0.0312605	25.0991
0.058051	33.0956
0.118938	42.006
0.204181	50.2309
0.291859	57.542
0.406328	64.8531
0.523232	71.7072
0.652313	77.6475
0.80575	83.8162
0.917783	87.0148
1.04443	90.8988
