Adsorption isotherm of Methane on UTSA-50a
DOI: 10.1039/C2ta00155a
Adsorbate Methane: InChIKey VNWKTOKETHGBQD-UHFFFAOYSA-N
Temperature: 296 K
Tabular data in the source: 0
pressure (bar)	uptake (cm3(STP)/g)
0.0117765	0.195795
0.121374	3.39439
0.260198	6.36451
0.459909	10.02
0.601168	12.5332
0.744862	15.0464
0.88125	16.8742
0.988412	18.0165
1.04686	18.4735
