Adsorption isotherm of Acetylene on UTSA-50a
DOI: 10.1039/C2ta00155a
Adsorbate Acetylene: InChIKey HSFWRNGVRCDJHI-UHFFFAOYSA-N
Temperature: 273 K
Tabular data in the source: 0
pressure (bar)	uptake (cm3(STP)/g)
0.00203445	4.6216
0.00934095	17.7815
0.019083	30.3931
0.062922	45.198
0.135987	58.9063
0.211488	70.9696
0.31865	82.2104
0.423376	90.9836
0.518361	96.1928
0.627958	100.579
0.761911	104.966
0.878815	109.079
0.993283	111.82
1.05174	113.465
