Adsorption isotherm of Carbon Dioxide on UTSA-50a
DOI: 10.1039/C2ta00155a
Adsorbate Carbon Dioxide: InChIKey CURLTUGMZLYLDI-UHFFFAOYSA-N
Temperature: 296 K
Tabular data in the source: 0
pressure (bar)	uptake (cm3(STP)/g)
0.00690545	0.881208
0.087277	10.02
0.179826	19.1589
0.284553	27.1554
0.384408	33.781
0.525667	42.006
0.664491	49.0886
0.764346	53.2011
0.88125	58.2274
0.973799	61.6545
1.04686	64.3961
