Adsorption isotherm of Methane on UTSA-50a
DOI: 10.1039/C2ta00155a
Adsorbate Methane: InChIKey VNWKTOKETHGBQD-UHFFFAOYSA-N
Temperature: 273 K
Tabular data in the source: 0
pressure (bar)	uptake (cm3(STP)/g)
0.00934095	0.783284
0.104325	4.89576
0.211488	9.2824
0.340569	13.3949
0.455038	16.4107
0.554893	18.8782
0.688846	21.894
0.788701	24.0873
0.898299	26.2806
1.00059	28.474
1.06635	29.0223
