Adsorption isotherm of Carbon Dioxide on UTSA-50a
DOI: 10.1039/C2ta00155a
Adsorbate Carbon Dioxide: InChIKey CURLTUGMZLYLDI-UHFFFAOYSA-N
Temperature: 273 K
Tabular data in the source: 0
pressure (bar)	uptake (cm3(STP)/g)
0.00934095	0.234954
0.0263895	8.18574
0.0994545	23.2648
0.211488	40.5372
0.321085	53.423
0.433118	64.1154
0.5622	73.4371
0.68641	81.9362
0.815492	89.3386
0.937267	95.6444
1.03712	99.7569
