Adsorption isotherm of Nitrogen on UTSA-50a
DOI: 10.1039/C2ta00155a
Adsorbate Nitrogen: InChIKey IJGRMHOSHXDMSA-UHFFFAOYSA-N
Temperature: 77 K
Tabular data in the source: 0
pressure (bar)	uptake (cm3(STP)/g)
0.00106945	161.374
0.00344225	182.924
0.00581504	194.167
0.0366613	204.005
0.0912356	206.816
0.131573	206.816
0.228858	209.158
0.292923	211.032
0.371225	211.501
0.501729	213.374
0.575285	215.248
0.701043	216.185
0.798328	219.465
0.864766	220.87
0.933577	223.212
