Adsorption isotherm of Nitrogen on 20 nm 3DOm carbon
DOI: 10.1007/s10450-020-00285-6
Article source: Figure 7
Adsorbate Nitrogen: InChIKey IJGRMHOSHXDMSA-UHFFFAOYSA-N
Kind: experiment
Temperature: 77 K
Tabular data in the source: 0
pressure (bar)	uptake (volumefraction)
0.005917	0.09246
0.022839	0.10949
0.049051	0.12409
0.073582	0.13139
0.098113	0.13869
0.123485	0.14599
0.150549	0.15328
0.175079	0.15937
0.200451	0.16545
0.225823	0.17275
0.252046	0.17883
0.276567	0.18491
0.301949	0.19221
0.328161	0.19708
0.353533	0.20438
0.378064	0.21168
0.405128	0.22019
0.431351	0.22628
0.454189	0.23358
0.480402	0.24088
0.505784	0.24818
0.531997	0.25791
0.557369	0.26764
0.581899	0.27494
0.60643	0.28224
0.632643	0.2944
0.658025	0.3017
0.683397	0.31752
0.708768	0.33333
0.733299	0.35158
0.758671	0.37591
0.783192	0.40876
0.810266	0.45864
0.834786	0.55839
0.861009	0.90754
0.871162	0.95134
0.881305	0.95864
0.894842	0.96229
0.913445	0.96837
0.926982	0.9708
0.938817	0.97445
0.954046	0.98054
0.962506	0.98297
0.970957	0.98905
0.983643	0.99027
0.991262	0.9927
1.00817	1
0.556528	0.27007
0.581899	0.28224
0.608122	0.3017
0.632643	0.32725
0.659717	0.36983
0.66986	0.39538
0.680012	0.43309
0.684238	0.45742
0.689314	0.48662
0.699467	0.58394
0.705384	0.65207
0.710461	0.7129
0.714686	0.75669
0.719762	0.79319
0.72568	0.81752
0.730756	0.84672
0.73414	0.86131
0.740058	0.87835
0.745985	0.88808
0.749369	0.89538
0.754436	0.90024
0.761204	0.90754
0.771357	0.91484
0.778125	0.91727
0.78996	0.92457
0.800954	0.92944
0.811107	0.93431
0.820408	0.93674
0.831402	0.94404
0.840714	0.94891
0.852549	0.95134
0.859317	0.95377
0.86947	0.95134
