Adsorption isotherm of Nitrogen on 30 nm 3DOm carbon
DOI: 10.1007/s10450-020-00285-6
Article source: Figure 7
Adsorbate Nitrogen: InChIKey IJGRMHOSHXDMSA-UHFFFAOYSA-N
Kind: experiment
Temperature: 77 K
Tabular data in the source: 0
pressure (bar)	uptake (volumefraction)
0.006769	0.08029
0.022839	0.09002
0.049051	0.09976
0.073582	0.10706
0.098954	0.11192
0.124326	0.11679
0.149708	0.12287
0.17592	0.12652
0.200451	0.13139
0.225823	0.13747
0.251195	0.14112
0.277418	0.14599
0.301949	0.15085
0.328161	0.15572
0.353533	0.16058
0.378915	0.16545
0.404287	0.17153
0.429659	0.17762
0.45503	0.18248
0.480402	0.18978
0.505784	0.19465
0.530305	0.19951
0.555676	0.20681
0.581899	0.21411
0.607271	0.22263
0.632643	0.23114
0.658025	0.24088
0.683397	0.25061
0.708768	0.26277
0.734991	0.27494
0.759512	0.28954
0.784884	0.30535
0.809414	0.31873
0.836478	0.33455
0.859317	0.3528
0.86947	0.36253
0.876228	0.36983
0.881305	0.3747
0.886381	0.382
0.891457	0.38929
0.896534	0.39903
0.911753	0.43309
0.921065	0.49878
0.926131	0.59002
0.930366	0.92944
0.938817	0.9927
0.950662	0.9927
0.962506	0.99392
0.972649	0.99513
0.983643	0.99635
0.992103	1
0.530305	0.20438
0.557369	0.21411
0.581058	0.22263
0.608122	0.23479
0.633494	0.24696
0.658025	0.26034
0.668167	0.26521
0.679161	0.27251
0.685089	0.27737
0.690165	0.28224
0.698616	0.29075
0.704543	0.29805
0.710461	0.30779
0.715537	0.3163
0.720613	0.32603
0.72568	0.3455
0.730756	0.36983
0.73414	0.38808
0.740909	0.42457
0.745985	0.4708
0.75021	0.53528
0.756128	0.61679
0.761204	0.71533
0.76628	0.79684
0.770506	0.86375
0.774741	0.90998
0.780658	0.93674
0.790811	0.9635
0.800954	0.97445
0.810266	0.9781
0.820408	0.97932
0.831402	0.98054
0.841555	0.98297
0.850856	0.98297
0.862701	0.98418
0.886381	0.98783
0.911753	0.99027
