Adsorption isotherm of Hydrogen on Pt/AC-bridges-MOF-177
DOI: 10.1021/La702466d
Adsorbate Hydrogen: InChIKey UFHFLCQGNIYNRP-UHFFFAOYSA-N
Temperature: 298 K
Tabular data in the source: 0
pressure (bar)	uptake (wt%)
5.02373	0.0521739
20.781	0.208696
42.4842	0.365217
60.3009	0.513043
75.6057	0.634783
88.6274	0.730435
99.8233	0.8
