Adsorption isotherm of Hydrogen on MOF-177
DOI: 10.1021/La702466d
Adsorbate Hydrogen: InChIKey UFHFLCQGNIYNRP-UHFFFAOYSA-N
Temperature: 323 K
Tabular data in the source: 0
pressure (bar)	uptake (cm3(STP)/g)
0.0248881	0.0930851
0.0384656	0.146277
0.0588259	0.219415
0.0746464	0.259309
0.0949767	0.299202
0.113046	0.332447
0.131115	0.365691
0.15144	0.398936
0.171764	0.432181
0.192082	0.458777
0.212407	0.492021
0.232725	0.518617
0.253043	0.545213
0.273362	0.571809
0.293686	0.605053
0.313998	0.625
0.334316	0.651596
0.354641	0.68484
0.374959	0.711436
0.395283	0.744681
0.415602	0.771277
0.43592	0.797872
0.456238	0.824468
0.476563	0.857713
0.496881	0.884309
0.517199	0.910904
0.537517	0.9375
0.557836	0.964096
0.57816	0.99734
0.598478	1.02394
0.618797	1.05053
0.639115	1.07713
0.659439	1.11037
0.679758	1.13697
0.700076	1.16356
0.7204	1.19681
0.740718	1.2234
0.761037	1.25
0.781355	1.2766
0.801673	1.30319
0.821992	1.32979
0.84231	1.35638
0.862634	1.38963
0.882953	1.41622
0.903271	1.44282
0.923595	1.47606
0.943913	1.50266
0.966481	1.52261
0.986799	1.5492
