Adsorption isotherm of Hydrogen on MOF-177
DOI: 10.1021/La702466d
Adsorbate Hydrogen: InChIKey UFHFLCQGNIYNRP-UHFFFAOYSA-N
Temperature: 298 K
Tabular data in the source: 0
pressure (bar)	uptake (wt%)
5.71104	0.0434783
20.786	0.173913
39.9779	0.3
55.0572	0.4
69.4497	0.504348
82.9338	0.565217
98.9334	0.626087
