Adsorption isotherm of Nitrogen on MOF-177
DOI: 10.1021/La702466d
Adsorbate Nitrogen: InChIKey IJGRMHOSHXDMSA-UHFFFAOYSA-N
Temperature: 77 K
Tabular data in the source: 0
pressure (bar)	uptake (mmol/g)
0.142832	0.0850364
0.254613	0.271116
0.510778	0.247534
0.558906	0.341289
0.610139	0.238388
0.711053	0.523653
0.766943	0.322138
0.864752	0.509504
0.915985	0.701157
0.965665	0.696584
0.993611	0.890381
1.00448	2.16578
