Adsorption isotherm of Hydrogen on MOF-177
DOI: 10.1021/La702466d
Adsorbate Hydrogen: InChIKey UFHFLCQGNIYNRP-UHFFFAOYSA-N
Temperature: 77 K
Tabular data in the source: 0
pressure (bar)	uptake (wt%)
0.00225269	0.00855615
0.00907069	0.0770053
0.0968359	0.346524
0.197908	0.517647
0.303431	0.66738
0.404437	0.791444
0.503196	0.91123
0.608671	1.02674
0.711905	1.14225
0.812893	1.25348
0.91614	1.37754
0.965513	1.43316
1.01042	1.49733
