Adsorption isotherm of Hydrogen on MOF-177
DOI: 10.1021/La702466d
Adsorbate Hydrogen: InChIKey UFHFLCQGNIYNRP-UHFFFAOYSA-N
Temperature: 273 K
Tabular data in the source: 0
pressure (bar)	uptake (cm3(STP)/g)
0.0249421	0.152926
0.0340158	0.212766
0.0408405	0.279255
0.0521751	0.345745
0.0634797	0.378989
0.0793121	0.432181
0.0951326	0.472074
0.11319	0.492021
0.129016	0.538564
0.147092	0.578457
0.165161	0.611702
0.183237	0.651596
0.199057	0.691489
0.21712	0.718085
0.235196	0.757979
0.253265	0.791223
0.273595	0.831117
0.291671	0.871011
0.307479	0.897606
0.323294	0.930851
0.341369	0.970745
0.361693	1.00399
0.379769	1.04388
0.395589	1.08378
0.413647	1.10372
0.431722	1.14362
0.449797	1.18351
0.467867	1.21676
0.485942	1.25665
0.499514	1.30319
0.519814	1.30984
0.53564	1.35638
0.553716	1.39628
0.571791	1.43617
0.589866	1.47606
0.603438	1.52261
0.621489	1.5359
0.639565	1.5758
0.65764	1.61569
0.67571	1.64894
0.69604	1.68883
0.711854	1.72207
0.727669	1.75532
0.745738	1.78856
0.766068	1.82846
0.784138	1.8617
0.802213	1.9016
0.820271	1.92154
0.833842	1.96809
0.851917	2.00798
0.869993	2.04787
0.888068	2.08777
0.903895	2.13431
0.92194	2.14096
0.937766	2.1875
0.955842	2.22739
0.973917	2.26729
0.991993	2.30718
1.00781	2.34707
