Adsorption isotherm of Hydrogen on MOF-177
DOI: 10.1021/La702466d
Adsorbate Hydrogen: InChIKey UFHFLCQGNIYNRP-UHFFFAOYSA-N
Temperature: 298 K
Tabular data in the source: 0
pressure (bar)	uptake (cm3(STP)/g)
0.00680675	0.0465426
0.0249421	0.152926
0.0340158	0.212766
0.0408405	0.279255
0.0634317	0.325798
0.0815071	0.365691
0.115379	0.418883
0.133454	0.458777
0.151524	0.492021
0.171848	0.525266
0.192172	0.558511
0.214752	0.591755
0.232827	0.631649
0.253145	0.658245
0.273469	0.691489
0.291539	0.724734
0.318628	0.757979
0.336703	0.797872
0.357028	0.831117
0.375091	0.857713
0.420249	0.924202
0.440574	0.957447
0.460892	0.984043
0.478961	1.01729
0.521859	1.07713
0.542177	1.10372
0.562502	1.13697
0.58282	1.16356
0.621202	1.21676
0.639271	1.25
0.659595	1.28324
0.679913	1.30984
0.700238	1.34309
0.72055	1.36303
0.738625	1.40293
0.758944	1.42952
0.779268	1.46277
0.799586	1.48936
0.824415	1.51596
0.842484	1.5492
0.862808	1.58245
0.883133	1.61569
0.92603	1.67553
0.946348	1.70213
0.966673	1.73537
0.986991	1.76197
1.00957	1.79521
