Adsorption isotherm of Nitrogen on MOF-177
DOI: 10.1021/La702466d
Adsorbate Nitrogen: InChIKey IJGRMHOSHXDMSA-UHFFFAOYSA-N
Temperature: 77 K
Tabular data in the source: 0
pressure (bar)	uptake (mmol/g)
0.00310503	12.1746
0.00621007	15.8072
0.0093151	26.8036
0.0155252	32.9887
0.0279453	37.7986
0.0527856	40.5455
0.0884934	41.8186
0.110229	42.3075
0.153699	42.7945
0.176987	42.9887
0.225115	43.377
0.251508	43.5709
0.273243	43.5689
0.296531	43.5668
0.344659	43.8569
0.397444	43.8521
0.4937	44.1377
0.597719	44.3245
0.692422	44.3158
0.793336	44.4047
0.889592	44.494
0.920642	44.5894
0.973428	44.3881
