Adsorption isotherm of Water on MOF-177
DOI: 10.1021/La702466d
Adsorbate Water: InChIKey XLYOFNOQVPJJNP-UHFFFAOYSA-N
Temperature: 298 K
Tabular data in the source: 0
pressure (bar)	uptake (wt%)
6.95e-06	0.306407
5.56e-05	1.62396
0.000111177	3.21727
0.000166765	4.96379
0.000222353	6.22006
0.000291839	7.62953
0.000340478	8.42618
0.000416912	9.06964
0.000541986	9.43733
0.000694854	9.65181
0.00104228	9.77437
0.00168849	9.83565
0.003106	9.89694
