Adsorption isotherm of Hydrogen on MOF-177
DOI: 10.1021/La702466d
Adsorbate Hydrogen: InChIKey UFHFLCQGNIYNRP-UHFFFAOYSA-N
Temperature: 298 K
Tabular data in the source: 0
pressure (bar)	uptake (mmol/g)
0.0133045	0.00393258
0.0288265	0.00617978
0.0510007	0.00898876
0.104219	0.0179775
0.201785	0.0376404
0.306004	0.0533708
0.405788	0.0662921
0.505572	0.0764045
0.607573	0.0848315
0.709574	0.0898876
0.809358	0.0938202
0.91136	0.097191
1.00893	0.0988764
