Adsorption isotherm of Oxygen on MOF-177
DOI: 10.1021/La702466d
Adsorbate Oxygen: InChIKey MYMOFIZGZYHOMD-UHFFFAOYSA-N
Temperature: 298 K
Tabular data in the source: 0
pressure (bar)	uptake (mmol/g)
0.0155219	0.00280899
0.0332613	0.00561798
0.0532181	0.00955056
0.102001	0.0179775
0.204003	0.0353933
0.303787	0.0533708
0.40357	0.0713483
0.505572	0.0893258
0.60979	0.105618
0.709574	0.123034
0.811576	0.139326
0.913577	0.155618
1.00893	0.174157
