Adsorption isotherm of Hydrogen on Pt/AC-MOF-177
DOI: 10.1021/La702466d
Adsorbate Hydrogen: InChIKey UFHFLCQGNIYNRP-UHFFFAOYSA-N
Temperature: 298 K
Tabular data in the source: 0
pressure (bar)	uptake (wt%)
5.46744	0.147826
13.6779	0.304348
22.1208	0.434783
31.2485	0.573913
40.6037	0.721739
49.7314	0.86087
58.1768	0.973913
67.7644	1.09565
77.5769	1.24348
88.5367	1.36522
97.2095	1.48696
