Adsorption isotherm of Nitrogen on Mg-MOF-74
DOI: 10.1016/j.ijggc.2013.01.009
Adsorbate Nitrogen: InChIKey IJGRMHOSHXDMSA-UHFFFAOYSA-N
Temperature: 298 K
Tabular data in the source: 0
pressure (bar)	uptake (mmol/g)
0.0140849	0.0138883
0.0301859	0.0277711
0.0442708	0.0416594
0.0583614	0.0527622
0.0744568	0.0694305
0.0905578	0.0833132
0.102627	0.0972072
0.118722	0.113875
0.132813	0.124978
0.148908	0.141646
0.162993	0.155535
0.177078	0.169423
0.189141	0.186103
0.207252	0.202765
0.221349	0.211083
0.23946	0.227745
0.249518	0.238859
0.265608	0.258313
0.279693	0.272201
0.293778	0.28609
0.309885	0.297187
0.325986	0.31107
0.340065	0.327744
0.354156	0.338846
0.370251	0.355515
0.384336	0.369403
0.400437	0.383286
0.412511	0.394394
0.428607	0.411062
0.442692	0.424951
0.458787	0.441619
0.472878	0.452722
0.488979	0.466605
0.503064	0.480493
0.517148	0.494381
0.533255	0.505478
0.547334	0.522152
0.559409	0.533261
0.577526	0.547138
0.591611	0.561026
0.607706	0.577694
0.619781	0.588803
0.63386	0.605477
0.649961	0.619359
0.664046	0.633248
0.680153	0.644345
0.694237	0.658233
0.708322	0.672122
0.722413	0.683224
0.738508	0.699893
0.752593	0.713781
0.7687	0.724878
0.780769	0.738772
0.79687	0.752655
0.810955	0.766543
0.827061	0.77764
0.83913	0.791534
0.857247	0.805412
0.871338	0.816514
0.887444	0.827612
0.899507	0.844291
0.915614	0.855388
0.929705	0.866491
0.9458	0.883159
0.959885	0.897048
0.97397	0.910936
0.988066	0.919253
