Adsorption isotherm of Nitrogen on Zeolite 13X
DOI: 10.1016/j.ijggc.2013.01.009
Adsorbate Nitrogen: InChIKey IJGRMHOSHXDMSA-UHFFFAOYSA-N
Temperature: 298 K
Tabular data in the source: 0
pressure (bar)	uptake (mmol/g)
0.0463712	-0.000129168
0.0846554	0.0109063
0.122951	0.0163706
0.161246	0.021835
0.197526	0.0273049
0.237832	0.0355492
0.278143	0.041008
0.316439	0.0464723
0.356745	0.0547166
0.401088	0.0601641
0.441394	0.0684084
0.485738	0.0738559
0.526055	0.0765291
0.570394	0.0847621
0.6107	0.0930064
0.646979	0.0984764
0.689312	0.101144
0.739693	0.112146
0.775973	0.117616
0.812257	0.1203
0.850547	0.12855
0.88481	0.134026
0.925128	0.136699
0.969466	0.144932
0.995664	0.15043
