Adsorption isotherm of Nitrogen on Mg-MOF-74
DOI: 10.1016/j.ijggc.2013.01.009
Adsorbate Nitrogen: InChIKey IJGRMHOSHXDMSA-UHFFFAOYSA-N
Temperature: 348 K
Tabular data in the source: 0
pressure (bar)	uptake (mmol/g)
0.0103518	0.00358974
0.0269125	0.00897436
0.0414018	0.0134615
0.0558911	0.0179487
0.0724518	0.0233333
0.086957	0.0305128
0.101446	0.035
0.115936	0.0394872
0.130425	0.0439744
0.146991	0.0502564
0.161485	0.055641
0.173909	0.0601282
0.188398	0.0646154
0.204959	0.07
0.221525	0.0762821
0.233943	0.0798718
0.25258	0.0870513
0.269125	0.0897436
0.277426	0.0960256
0.293987	0.10141
0.310548	0.106795
0.325042	0.112179
0.339532	0.116667
0.354026	0.122051
0.370582	0.126538
0.387142	0.131923
0.399576	0.138205
0.409928	0.141795
0.424417	0.146282
0.447182	0.152564
0.457539	0.157051
0.476171	0.163333
0.492726	0.167821
0.507221	0.173205
0.517578	0.177692
0.532078	0.183974
0.546562	0.187564
0.565194	0.193846
0.577617	0.198333
0.594172	0.202821
0.606596	0.207308
0.62109	0.212692
0.633519	0.218077
0.654212	0.223462
0.668701	0.227949
0.681129	0.233333
0.69769	0.238718
0.71219	0.245
0.724603	0.247692
0.743235	0.253974
0.757724	0.258462
0.768086	0.263846
0.784642	0.268333
0.799131	0.272821
0.817763	0.279103
0.832263	0.285385
0.85089	0.290769
0.85917	0.293462
0.875726	0.297949
0.892297	0.305128
0.910919	0.309615
0.92127	0.313205
0.93577	0.319487
0.950265	0.324872
0.962683	0.328462
0.979238	0.332949
0.995804	0.339231
