Adsorption isotherm of Carbon Dioxide on Mg-MOF-74
DOI: 10.1016/j.ijggc.2013.01.009
Adsorbate Carbon Dioxide: InChIKey CURLTUGMZLYLDI-UHFFFAOYSA-N
Temperature: 298 K
Tabular data in the source: 0
pressure (bar)	uptake (mmol/g)
0.0111891	2.67029
0.0112241	2.52192
0.013476	2.99663
0.013511	2.84826
0.015791	3.20428
0.0180709	3.56029
0.0181059	3.41193
0.0250649	3.97552
0.025114	3.7678
0.0273729	4.21284
0.0297019	4.36114
0.0343949	4.50937
0.036731	4.62799
0.041389	4.92459
0.0507752	5.22105
0.0508102	5.07268
0.0601754	5.45816
0.0696036	5.57657
0.0766678	5.69505
0.0884462	5.87275
0.0978674	6.02083
0.114388	6.13904
0.133273	6.25717
0.142708	6.34591
0.15215	6.40498
0.168671	6.52318
0.187562	6.61165
0.20409	6.70018
0.21826	6.7591
0.227703	6.81817
0.246594	6.90663
0.260772	6.93588
0.27967	6.99467
0.291477	7.05367
0.303297	7.05331
0.322189	7.14177
0.329274	7.17124
0.33873	7.17096
0.34818	7.20035
0.357629	7.22974
0.376528	7.28853
0.390705	7.31778
0.409611	7.3469
0.426145	7.40575
0.437966	7.4054
0.4545	7.46426
0.471035	7.52311
0.492304	7.55216
0.506475	7.61108
0.515938	7.58113
0.527752	7.61045
0.539565	7.63978
0.558464	7.69856
0.577369	7.72767
0.58919	7.72732
0.605731	7.75651
0.617538	7.8155
0.631722	7.81508
0.648264	7.84427
0.662434	7.90319
0.676619	7.90277
0.693153	7.96163
0.704967	7.99095
0.723879	7.99039
0.735693	8.01971
0.752234	8.0489
0.768776	8.07808
0.785317	8.10726
0.790039	8.13679
0.808944	8.16591
0.825486	8.19509
0.83967	8.19467
0.856205	8.25353
0.872739	8.31238
0.889288	8.31189
0.901108	8.31154
0.915286	8.34079
0.931827	8.36998
0.946005	8.39923
0.960189	8.39881
0.97436	8.45773
0.988537	8.48699
