Adsorption isotherm of Nitrogen on Activated Carbon
DOI: 10.1016/j.ijggc.2013.01.009
Adsorbate Nitrogen: InChIKey IJGRMHOSHXDMSA-UHFFFAOYSA-N
Temperature: 348 K
Tabular data in the source: 0
pressure (bar)	uptake (mmol/g)
0.0186109	0.00269231
0.0268807	0.00358974
0.0351505	0.00448718
0.0496239	0.00628205
0.0578989	0.00807692
0.0703115	0.0107692
0.0847849	0.0125641
0.0930547	0.0134615
0.107533	0.0161538
0.115808	0.0179487
0.126144	0.0188462
0.13648	0.0197436
0.150954	0.0215385
0.1613	0.0242308
0.16957	0.0251282
0.181972	0.0260256
0.190242	0.0269231
0.206786	0.0296154
0.215056	0.0305128
0.227463	0.0323077
0.235733	0.0332051
0.244003	0.0341026
0.260542	0.0358974
0.270878	0.0367949
0.281209	0.0367949
0.29155	0.0385897
0.301891	0.0403846
0.314293	0.0412821
0.322558	0.0412821
0.334965	0.0430769
0.347367	0.0439744
0.359769	0.0448718
0.368039	0.0457692
0.380446	0.0475641
0.390782	0.0484615
0.401118	0.049359
0.415586	0.0502564
0.423856	0.0511538
0.436263	0.0529487
0.444527	0.0529487
0.456935	0.0547436
0.467271	0.055641
0.477606	0.0565385
0.490008	0.0574359
0.498273	0.0574359
0.508609	0.0583333
0.518939	0.0583333
0.531347	0.0601282
0.541683	0.0610256
0.554085	0.0619231
0.56441	0.0610256
0.578889	0.0637179
0.585087	0.0637179
0.597489	0.0646154
0.609891	0.0655128
0.620221	0.0655128
0.630552	0.0655128
0.640888	0.0664103
0.653295	0.0682051
0.661565	0.0691026
0.673962	0.0691026
0.680165	0.07
0.694633	0.0708974
0.707035	0.0717949
0.719432	0.0717949
0.727697	0.0717949
0.738032	0.0726923
0.750434	0.0735897
0.760765	0.0735897
0.775238	0.0753846
0.781437	0.0753846
0.791767	0.0753846
0.804169	0.0762821
0.816571	0.0771795
0.824836	0.0771795
0.839299	0.0771795
0.847568	0.0780769
0.857904	0.0789744
0.868229	0.0780769
0.880637	0.0798718
0.888907	0.0807692
0.903375	0.0816667
0.913705	0.0816667
0.928173	0.0825641
0.936443	0.0834615
0.950906	0.0834615
0.957104	0.0834615
0.969506	0.084359
0.981908	0.0852564
0.988107	0.0852564
1.00257	0.0861538
