Adsorption isotherm of Carbon Dioxide on MCF Chemisorbent
DOI: 10.1016/j.ijggc.2013.01.009
Adsorbate Carbon Dioxide: InChIKey CURLTUGMZLYLDI-UHFFFAOYSA-N
Temperature: 348 K
Tabular data in the source: 0
pressure (bar)	uptake (mmol/g)
0.00693837	0.455478
0.0163318	0.641674
0.0233541	0.848629
0.0327544	1.01411
0.0421478	1.20031
0.0515202	1.44864
0.0585565	1.61417
0.070314	1.80032
0.0820784	1.96576
0.096221	2.08972
0.112721	2.23435
0.133955	2.35817
0.15754	2.52336
0.181153	2.60572
0.207109	2.75015
0.23545	2.8324
0.261434	2.89399
0.292139	2.9762
0.322851	3.03769
0.348835	3.09928
0.372469	3.11951
0.405545	3.18095
0.426808	3.22193
0.448085	3.22149
0.474076	3.26237
0.497716	3.26188
0.521343	3.30281
0.549705	3.32294
0.575703	3.34311
0.599344	3.34262
0.63007	3.36269
0.656068	3.38286
0.67261	3.40323
0.698614	3.40269
0.719884	3.42296
0.745882	3.44313
0.764795	3.44274
0.790807	3.42149
0.819162	3.46233
0.842795	3.48255
0.868793	3.50272
0.892448	3.46081
0.918439	3.50169
0.937352	3.5013
0.96335	3.52147
0.984626	3.52103
