Adsorption isotherm of Carbon Dioxide on Activated Carbon
DOI: 10.1016/j.ijggc.2013.01.009
Adsorbate Carbon Dioxide: InChIKey CURLTUGMZLYLDI-UHFFFAOYSA-N
Temperature: 348 K
Tabular data in the source: 0
pressure (bar)	uptake (mmol/g)
0.0236268	0.0409308
0.0354333	0.0821064
0.0496108	0.102523
0.0614242	0.122988
0.0732376	0.143454
0.085051	0.163919
0.101593	0.184287
0.111035	0.225511
0.122848	0.245977
0.132298	0.266491
0.141747	0.287005
0.151196	0.30752
0.16301	0.327985
0.179551	0.348352
0.186637	0.368916
0.19845	0.389381
0.205535	0.409945
0.217349	0.43041
0.229169	0.430165
0.240976	0.471341
0.250432	0.471145
0.262245	0.49161
0.276423	0.512027
0.292957	0.553104
0.302407	0.573619
0.316591	0.573325
0.326034	0.61455
0.340218	0.614256
0.349674	0.61406
0.363852	0.634476
0.373294	0.675701
0.382751	0.675505
0.394564	0.695971
0.401649	0.716534
0.415834	0.71624
0.425283	0.736754
0.437097	0.75722
0.44891	0.777685
0.458366	0.777489
0.47018	0.797955
0.479636	0.797759
0.493807	0.838886
0.503256	0.8594
0.515076	0.859155
0.52689	0.879621
0.533975	0.900184
0.548159	0.89989
0.557609	0.920405
0.567065	0.920209
0.581243	0.940625
0.590692	0.96114
0.600148	0.960944
0.611962	0.981409
0.623775	1.00187
0.635589	1.02234
0.647409	1.0221
0.659222	1.04256
0.668679	1.04236
0.678135	1.04217
0.689941	1.08334
0.699398	1.08315
0.711204	1.12432
0.720668	1.10342
0.730117	1.12393
0.74193	1.1444
0.756108	1.16481
0.767928	1.16457
0.777378	1.18508
0.78447	1.18494
0.796283	1.2054
0.80574	1.20521
0.819917	1.22562
0.83173	1.24609
0.841187	1.24589
0.850636	1.26641
0.864814	1.28682
0.876634	1.28658
0.883726	1.28643
0.89554	1.3069
0.907353	1.32736
0.916809	1.32717
0.926259	1.34768
0.938079	1.34744
0.954621	1.3678
0.961713	1.36766
0.973526	1.38812
0.982976	1.40864
0.994796	1.40839
