Adsorption isotherm of Carbon Dioxide on Zeolite 13X
DOI: 10.1016/j.ijggc.2013.01.009
Adsorbate Carbon Dioxide: InChIKey CURLTUGMZLYLDI-UHFFFAOYSA-N
Temperature: 323 K
Tabular data in the source: 0
pressure (bar)	uptake (mmol/g)
0.0116448	0.251057
0.0305677	0.5197
0.0567686	0.85986
0.0815138	1.16414
0.11936	1.46772
0.158661	1.69931
0.202329	1.93066
0.25182	2.10777
0.299854	2.28495
0.352256	2.42595
0.403202	2.54904
0.45706	2.63602
0.487627	2.67033
0.519651	2.74051
0.550218	2.7928
0.583697	2.84492
0.618632	2.86102
0.649199	2.9133
0.679767	2.98356
0.704512	2.98223
0.740902	3.0342
0.781659	3.08593
0.812227	3.12024
0.842795	3.13657
0.874818	3.1708
0.909753	3.22284
0.934498	3.23949
0.959243	3.25613
0.988355	3.25456
