Adsorption isotherm of Carbon Dioxide on Mg-MOF-74
DOI: 10.1016/j.ijggc.2013.01.009
Adsorbate Carbon Dioxide: InChIKey CURLTUGMZLYLDI-UHFFFAOYSA-N
Temperature: 348 K
Tabular data in the source: 0
pressure (bar)	uptake (mmol/g)
0.00933743	0.351878
0.0140306	0.455331
0.0187098	0.600204
0.023396	0.724368
0.0280822	0.848531
0.0350835	1.11762
0.0351325	0.972645
0.0397697	1.24178
0.046834	1.32447
0.0562274	1.51067
0.0632707	1.65549
0.070307	1.82103
0.0750072	1.90377
0.0820575	2.02789
0.0914648	2.17266
0.100886	2.27602
0.107929	2.42084
0.117337	2.56562
0.126758	2.66897
0.136159	2.83446
0.150308	2.93772
0.157351	3.08254
0.171501	3.1858
0.185636	3.33047
0.197422	3.43378
0.209193	3.57851
0.223343	3.68177
0.242214	3.80563
0.253999	3.90894
0.270513	4.01215
0.284662	4.11541
0.29409	4.19805
0.312975	4.2805
0.329496	4.363
0.343645	4.46626
0.360173	4.52804
0.369615	4.56927
0.383772	4.65182
0.400299	4.7136
0.546684	5.26974
0.563225	5.29011
0.577389	5.35195
0.598658	5.37222
0.610472	5.39268
0.627	5.45447
0.638813	5.47494
0.655341	5.53672
0.669518	5.55714
0.686053	5.59822
0.700223	5.63934
0.714394	5.68047
0.728571	5.70089
0.742749	5.7213
0.759283	5.76238
0.775825	5.78275
0.785267	5.82397
0.804173	5.84429
0.81835	5.86471
0.832528	5.88513
0.846705	5.90554
0.865604	5.94657
0.879781	5.96699
0.893952	6.00811
0.90813	6.02853
0.919943	6.049
0.93412	6.06941
0.953026	6.08973
0.969561	6.13081
0.981381	6.13056
0.993188	6.17174
