Adsorption isotherm of Carbon Dioxide on Zeolite 13X
DOI: 10.1016/j.ijggc.2013.01.009
Adsorbate Carbon Dioxide: InChIKey CURLTUGMZLYLDI-UHFFFAOYSA-N
Temperature: 298 K
Tabular data in the source: 0
pressure (bar)	uptake (mmol/g)
0.0116801	0.593125
0.0140161	0.71175
0.0210663	0.889583
0.0281165	1.06741
0.0375167	1.30452
0.049281	1.54156
0.0634093	1.77853
0.0799088	1.98576
0.0987794	2.16324
0.110572	2.28159
0.124728	2.39986
0.138885	2.51813
0.153055	2.57706
0.167219	2.66566
0.181389	2.72459
0.197917	2.81312
0.20973	2.84244
0.226257	2.93097
0.245156	2.98976
0.268769	3.10775
0.290032	3.16647
0.311294	3.22518
0.332557	3.2839
0.35382	3.34262
0.377454	3.37159
0.393988	3.43045
0.412894	3.45956
0.431799	3.48867
0.453069	3.51771
0.471968	3.5765
0.50033	3.60533
0.516864	3.66419
0.540512	3.63381
0.559411	3.6926
0.578316	3.72171
0.594865	3.72122
0.609042	3.75047
0.620856	3.7798
0.632676	3.77945
0.642133	3.77917
0.658681	3.77867
0.670488	3.83767
0.6894	3.83711
0.703578	3.86636
0.720119	3.89555
0.736668	3.89505
0.750852	3.89463
0.769758	3.92375
0.7863	3.95293
0.805205	3.98204
0.826475	4.01108
0.845388	4.01052
0.861929	4.03971
0.878478	4.03921
0.892655	4.06847
0.90684	4.06805
0.925752	4.06749
0.93993	4.09674
0.954114	4.09632
0.963578	4.06636
0.977755	4.09562
0.994297	4.1248
