Adsorption isotherm of Nitrogen on Zeolite 13X
DOI: 10.1016/j.ijggc.2013.01.009
Adsorbate Nitrogen: InChIKey IJGRMHOSHXDMSA-UHFFFAOYSA-N
Temperature: 348 K
Tabular data in the source: 0
pressure (bar)	uptake (mmol/g)
0.0247881	-0.000897436
0.0619941	0.00179487
0.0992053	0.00538462
0.13434	0.00717949
0.165353	0.0107692
0.202554	0.0125641
0.241826	0.0152564
0.283169	0.0188462
0.326568	0.020641
0.357581	0.0242308
0.39065	0.0260256
0.425784	0.0278205
0.465056	0.0305128
0.508466	0.0341026
0.549799	0.0358974
0.597341	0.0394872
0.634547	0.0421795
0.673819	0.0448718
0.713096	0.0484615
0.762699	0.0511538
0.816439	0.0547436
0.872245	0.0583333
0.917721	0.0619231
0.96939	0.0646154
0.99626	0.0664103
