Adsorption isotherm of Nitrogen on Zeolite 13X
DOI: 10.1016/j.ijggc.2013.01.009
Adsorbate Nitrogen: InChIKey IJGRMHOSHXDMSA-UHFFFAOYSA-N
Temperature: 323 K
Tabular data in the source: 0
pressure (bar)	uptake (mmol/g)
0.0381579	0.00184737
0.0622598	0.00375096
0.0823513	0.00767059
0.104439	0.00758224
0.122512	0.00750995
0.144611	0.0114216
0.166705	0.0133332
0.196837	0.0172127
0.220938	0.0191162
0.247048	0.0210118
0.279188	0.0248832
0.317351	0.0287306
0.359531	0.0325619
0.393673	0.0344253
0.437866	0.0402485
0.478038	0.0440878
0.512186	0.0479513
0.546333	0.0518147
0.580475	0.0536781
0.616631	0.0575335
0.646763	0.0614129
0.672872	0.0633085
0.700996	0.067196
0.727106	0.0690916
0.753216	0.0709871
0.78535	0.0728586
0.823513	0.0767059
0.855653	0.0805774
0.885784	0.0844569
0.911894	0.0863524
0.929972	0.0882801
0.960104	0.0921596
0.988222	0.0940471
