Adsorption isotherm of Carbon Dioxide on Activated Carbon
DOI: 10.1016/j.ijggc.2013.01.009
Adsorbate Carbon Dioxide: InChIKey CURLTUGMZLYLDI-UHFFFAOYSA-N
Temperature: 323 K
Tabular data in the source: 0
pressure (bar)	uptake (mmol/g)
0.0160116	0.0540088
0.0247453	0.0900499
0.0363901	0.107939
0.0509461	0.180073
0.062591	0.197962
0.0727802	0.233977
0.084425	0.324264
0.0931587	0.342205
0.104803	0.378194
0.112082	0.396161
0.123726	0.43215
0.135371	0.450039
0.14556	0.504153
0.161572	0.576261
0.180495	0.594018
0.193595	0.64808
0.203785	0.665995
0.213974	0.68391
0.224163	0.701825
0.232897	0.719767
0.243086	0.737682
0.254731	0.75557
0.266376	0.791559
0.276565	0.827573
0.286754	0.863588
0.299854	0.89955
0.308588	0.899392
0.318777	0.935407
0.331878	0.953269
0.346434	0.989205
0.353712	1.00717
0.366812	1.04313
0.378457	1.06102
0.388646	1.07894
0.39738	1.07878
0.409025	1.11477
0.419214	1.16888
0.43377	1.18672
0.443959	1.20463
0.451237	1.2045
0.462882	1.22239
0.475983	1.27645
0.487627	1.29434
0.500728	1.3122
0.513828	1.33007
0.524017	1.32988
0.537118	1.36584
0.551674	1.36558
0.564774	1.36534
0.574964	1.41946
0.583697	1.4374
0.592431	1.45534
0.604076	1.47323
0.618632	1.50917
0.622999	1.50909
0.637555	1.50882
0.650655	1.52668
0.666667	1.58069
0.676856	1.58051
0.684134	1.63468
0.691412	1.63454
0.703057	1.63433
0.717613	1.67027
0.730713	1.67003
0.740902	1.66985
0.752547	1.68774
0.75837	1.72383
0.768559	1.74175
0.777293	1.75969
0.790393	1.79565
0.804949	1.81349
0.816594	1.81327
