Adsorption isotherm of Nitrogen on Activated Carbon
DOI: 10.1016/j.ijggc.2013.01.009
Adsorbate Nitrogen: InChIKey IJGRMHOSHXDMSA-UHFFFAOYSA-N
Temperature: 298 K
Tabular data in the source: 0
pressure (bar)	uptake (mmol/g)
0.0261986	0.00549805
0.0342575	0.00826112
0.0423165	0.0110242
0.0564126	0.0193415
0.0664877	0.0220989
0.0765628	0.0248564
0.088654	0.0276082
0.102756	0.03314
0.112831	0.0358974
0.122906	0.0386549
0.130965	0.0414179
0.143056	0.0441698
0.155147	0.0469216
0.163206	0.0496847
0.177314	0.0524309
0.187389	0.0551883
0.197464	0.0579458
0.209561	0.0579121
0.219636	0.0606695
0.229716	0.0606415
0.241802	0.0661788
0.249861	0.0689419
0.259936	0.0716993
0.274049	0.07166
0.288156	0.0744062
0.298232	0.0771637
0.308312	0.0771356
0.316377	0.0771132
0.330484	0.0798594
0.338537	0.085408
0.35064	0.0825887
0.362731	0.0853406
0.372812	0.0853125
0.382887	0.08807
0.392968	0.0880419
0.405059	0.0907937
0.417156	0.09076
0.425215	0.0935231
0.437312	0.0934894
0.451413	0.0990211
0.459483	0.0962131
0.47158	0.0961794
0.481655	0.0989369
0.49173	0.101694
0.503827	0.101661
0.515919	0.104412
0.523977	0.107176
0.536074	0.107142
0.546149	0.109899
0.558246	0.109866
0.570343	0.109832
0.578408	0.109809
0.590499	0.112561
0.60259	0.115313
0.608639	0.115296
0.620735	0.115263
0.634848	0.115223
0.64694	0.117975
0.65702	0.117947
0.667095	0.120704
0.673144	0.120688
0.687262	0.117863
0.695321	0.120626
0.709434	0.120587
0.72152	0.126124
0.729584	0.126101
0.741681	0.126068
0.751762	0.12604
0.763859	0.126006
0.777966	0.128752
0.788047	0.128724
0.794095	0.128707
0.808203	0.131453
0.816267	0.131431
0.828364	0.131397
0.838445	0.131369
0.850542	0.131336
0.862633	0.134087
0.872719	0.131274
0.88481	0.134026
0.894886	0.136783
0.906982	0.136749
0.921095	0.13671
0.931176	0.136682
0.941251	0.139439
0.949316	0.139417
0.959396	0.139389
0.971493	0.139355
0.985606	0.139316
0.993671	0.139293
