Adsorption isotherm of Nitrogen on Mg-MOF-74
DOI: 10.1016/j.ijggc.2013.01.009
Adsorbate Nitrogen: InChIKey IJGRMHOSHXDMSA-UHFFFAOYSA-N
Temperature: 323 K
Tabular data in the source: 0
pressure (bar)	uptake (mmol/g)
0.014079	0.00794368
0.024142	0.0159034
0.0422313	0.0218311
0.0543023	0.0297828
0.0683871	0.0397265
0.0844741	0.0476621
0.100561	0.0555978
0.116648	0.0635334
0.130727	0.0714771
0.148828	0.0814047
0.158885	0.0873645
0.176992	0.099292
0.191065	0.105236
0.207152	0.113171
0.217221	0.123131
0.233308	0.131067
0.2494	0.141002
0.263474	0.146946
0.279561	0.154882
0.295654	0.164817
0.309727	0.170761
0.325814	0.178697
0.339893	0.18664
0.353978	0.196584
0.370065	0.20452
0.384138	0.210463
0.398223	0.220407
0.412296	0.226351
0.428383	0.234286
0.442468	0.24423
0.456552	0.254174
0.472634	0.260109
0.488721	0.268045
0.5028	0.275989
0.514865	0.281941
0.530958	0.291876
0.545048	0.30382
0.56113	0.309755
0.579225	0.317683
0.591296	0.325635
0.607383	0.33357
0.621456	0.339514
0.635546	0.351458
0.647606	0.35541
0.665701	0.363337
0.685804	0.371257
0.699889	0.3812
0.70593	0.387176
0.728052	0.399088
0.744134	0.405023
0.758213	0.412967
0.770278	0.418919
0.782349	0.426871
0.802458	0.43679
0.814523	0.442742
0.830622	0.454678
0.846697	0.458613
0.860776	0.466557
0.874855	0.474501
0.890942	0.482436
0.898991	0.488404
0.91509	0.50034
0.933179	0.506267
0.947252	0.512211
0.965353	0.522139
0.981435	0.528074
0.993511	0.538026
