Adsorption isotherm of Carbon Dioxide on Zeolite 13X
DOI: 10.1016/j.ijggc.2013.01.009
Adsorbate Carbon Dioxide: InChIKey CURLTUGMZLYLDI-UHFFFAOYSA-N
Temperature: 348 K
Tabular data in the source: 0
pressure (bar)	uptake (mmol/g)
0.0165066	0.123919
0.0353703	0.268498
0.0565981	0.413029
0.080183	0.578221
0.108489	0.764025
0.134445	0.908458
0.160408	1.03218
0.188735	1.15585
0.212341	1.25892
0.240675	1.36188
0.27138	1.44408
0.302085	1.52629
0.337511	1.6291
0.377673	1.71111
0.410742	1.79327
0.446175	1.87538
0.483979	1.93672
0.514699	1.97751
0.543047	2.03905
0.578487	2.10045
0.61157	2.14118
0.644653	2.18192
0.682465	2.22255
0.717905	2.28395
0.755723	2.30388
0.802977	2.38574
0.836067	2.40576
0.89042	2.46677
0.928231	2.5074
0.966057	2.50662
0.989676	2.56826
