Adsorption isotherm of Nitrogen on Activated Carbon
DOI: 10.1016/j.ijggc.2013.01.009
Adsorbate Nitrogen: InChIKey IJGRMHOSHXDMSA-UHFFFAOYSA-N
Temperature: 323 K
Tabular data in the source: 0
pressure (bar)	uptake (mmol/g)
0.022111	0.00791156
0.0321511	0.0078714
0.0421969	0.00983121
0.0582724	0.0137669
0.0683182	0.0157267
0.076356	0.0176946
0.0864018	0.0196544
0.0984556	0.0216062
0.108496	0.021566
0.120555	0.0255178
0.132609	0.0274696
0.142655	0.0294294
0.1527	0.0313892
0.164754	0.033341
0.176808	0.0352928
0.188868	0.0392445
0.198913	0.0412043
0.206945	0.0411722
0.216991	0.043132
0.231047	0.0430758
0.241093	0.0450356
0.253147	0.0469874
0.265201	0.0489392
0.277254	0.050891
0.289308	0.0528428
0.295332	0.0528187
0.30337	0.0547865
0.31944	0.0567222
0.327472	0.0566901
0.341534	0.0586339
0.351579	0.0605937
0.363627	0.0605455
0.37166	0.0605134
0.383713	0.0624651
0.395767	0.0644169
0.403799	0.0643848
0.415853	0.0663366
0.425893	0.0662964
0.439955	0.0682402
0.452003	0.068192
0.460041	0.0701598
0.474102	0.0721036
0.484137	0.0700635
0.496191	0.0720152
0.506231	0.0719751
0.518279	0.0719269
0.52833	0.0758867
0.53837	0.0758465
0.550424	0.0777983
0.562472	0.0777501
0.572512	0.07771
0.582558	0.0796698
0.594606	0.0796216
0.604646	0.0795814
0.6167	0.0815332
0.626746	0.083493
0.638794	0.0834448
0.648834	0.0834047
0.656866	0.0833725
0.670933	0.0873163
0.680973	0.0872761
0.689005	0.087244
0.699051	0.0892038
0.713107	0.0891476
0.725149	0.0870994
0.733187	0.0890673
0.745241	0.091019
0.755275	0.0889789
0.769343	0.0929226
0.777375	0.0928905
0.789429	0.0948423
0.799463	0.0928021
0.811511	0.092754
0.823559	0.0927058
0.833605	0.0946656
0.847667	0.0966093
0.853691	0.0965852
0.865739	0.096537
0.879801	0.0984808
0.885825	0.0984567
0.89587	0.100417
0.911929	0.0983523
0.919961	0.0983202
0.932015	0.100272
0.942055	0.100232
0.954103	0.100184
0.964148	0.102143
0.976196	0.102095
0.986237	0.102055
0.99829	0.104007
