Adsorption isotherm of Carbon Dioxide on Activated Carbon
DOI: 10.1016/j.ijggc.2013.01.009
Adsorbate Carbon Dioxide: InChIKey CURLTUGMZLYLDI-UHFFFAOYSA-N
Temperature: 298 K
Tabular data in the source: 0
pressure (bar)	uptake (mmol/g)
0.0141424	0.177622
0.0283199	0.206875
0.0353981	0.266012
0.0495545	0.384286
0.0589968	0.443353
0.0731673	0.50228
0.0849737	0.561277
0.0991442	0.620203
0.110944	0.708874
0.127478	0.767731
0.141649	0.826657
0.158176	0.915188
0.169989	0.944511
0.191245	1.0329
0.205416	1.09183
0.219586	1.15075
0.236114	1.23928
0.252655	1.26847
0.266826	1.32739
0.280996	1.38632
0.29281	1.41564
0.304616	1.47464
0.321157	1.50382
0.344777	1.59214
0.36604	1.65086
0.382582	1.68004
0.394395	1.70937
0.403844	1.73876
0.420379	1.79761
0.427471	1.7974
0.444006	1.85626
0.45819	1.85584
0.472361	1.91477
0.498344	2.00302
0.512522	2.03227
0.526692	2.0912
0.54087	2.12045
0.555054	2.12003
0.564504	2.14942
0.571589	2.17888
0.585759	2.23781
0.604665	2.26692
0.61885	2.2665
0.63067	2.26615
0.642476	2.32515
0.651926	2.35454
0.666096	2.41347
0.675552	2.41319
0.692087	2.47204
0.701543	2.47176
0.718092	2.47127
0.739348	2.55966
0.751154	2.61866
0.760617	2.58871
0.772438	2.58835
0.786601	2.67696
0.803136	2.73581
0.812592	2.73553
0.826777	2.73511
0.840961	2.73469
0.857489	2.82322
0.87403	2.8524
0.890572	2.88159
0.911834	2.9403
0.926019	2.93988
0.937839	2.93953
0.956745	2.96864
0.96383	2.99811
0.980379	2.99761
0.992185	3.05661
