Adsorption isotherm of Carbon Dioxide on Mg-MOF-74
DOI: 10.1016/j.ijggc.2013.01.009
Adsorbate Carbon Dioxide: InChIKey CURLTUGMZLYLDI-UHFFFAOYSA-N
Temperature: 323 K
Tabular data in the source: 0
pressure (bar)	uptake (mmol/g)
0.0131004	0.0131004
0.014556	1.08571
0.0160116	1.48387
0.0189229	1.59242
0.0232897	1.77333
0.0262009	1.93618
0.0276565	2.06285
0.0320233	2.31616
0.0363901	2.42468
0.0422125	2.65987
0.0465793	2.84079
0.0480349	2.98556
0.0567686	3.14829
0.0596798	3.25684
0.0640466	3.45585
0.069869	3.61864
0.0742358	3.70906
0.0815138	3.87183
0.0902475	3.99837
0.0989811	4.1792
0.104803	4.32389
0.114993	4.46851
0.126638	4.61309
0.139738	4.77575
0.149927	4.92036
0.161572	5.04685
0.184862	5.19122
0.196507	5.29961
0.208151	5.3718
0.229985	5.5343
0.237263	5.58847
0.25182	5.6425
0.270742	5.76886
0.283843	5.80482
0.304221	5.91305
0.317322	5.96711
0.334789	6.03919
0.346434	6.07518
0.368268	6.16528
0.391557	6.30966
0.409025	6.34554
0.423581	6.36337
0.432314	6.39942
0.445415	6.41728
0.461426	6.43509
0.471616	6.453
0.477438	6.5072
0.486172	6.50704
0.512373	6.54276
0.525473	6.56062
0.537118	6.59661
0.550218	6.63258
0.56623	6.68658
0.583697	6.70437
0.596798	6.74033
0.611354	6.75817
0.62591	6.776
0.647744	6.82991
0.660844	6.84777
0.671033	6.88378
0.68559	6.88352
0.701601	6.90133
0.716157	6.93726
0.732169	6.97317
0.74818	6.99098
0.75837	6.9908
0.777293	7.06285
0.790393	7.04452
0.80786	7.1166
0.820961	7.11636
