Adsorption isotherm of Nitrogen on ACOF-1 prepared in Mesitylene/Dioxane
DOI: 10.1039/c4cc05665e
Article source: Figure S9b
Adsorbate Nitrogen: InChIKey IJGRMHOSHXDMSA-UHFFFAOYSA-N
Kind: experiment
Temperature: 77 K
Tabular data in the source: 0
pressure (bar)	uptake (cm3(STP)/g)
0.012759	249.826
0.008724	97.0424
0.007333	51.3819
0.007333	17.044
0.040727	271.254
0.069946	281.558
0.099165	287.106
0.129081	290.144
0.157604	295.032
0.186824	300.316
0.216507	320.597
0.245263	306.975
0.286641	309.51
0.303006	352.717
0.380391	384.703
0.333617	362.58
0.330834	314.803
0.382241	321.585
0.420579	326.737
0.422666	395.562
0.453973	406.527
0.467145	334.555
0.51102	419.605
0.513803	340.695
0.541631	431.714
0.558978	348.717
0.599374	455.052
0.602157	357.649
0.62929	467.294
0.646636	365.098
0.678003	487.002
0.691068	375.403
0.723905	504.884
0.736442	386.868
0.754516	515.57
0.783039	398.336
0.811563	535.811
0.810868	406.35
0.851293	549.11
0.846348	418.944
0.899917	560.47
0.894655	439.386
0.975749	507.009
0.977125	603.727
0.999866	553.155
1.00914	653.559
0.934217	459.708
0.259392	334.007
0.026344	263.973
0.012159	233.446
0.012159	213.692
0.012159	172.391
0.012159	138.272
