Adsorption isotherm of Nitrogen on ACOF-1 prepared in Mesitylene
DOI: 10.1039/c4cc05665e
Article source: Figure S9a
Adsorbate Nitrogen: InChIKey IJGRMHOSHXDMSA-UHFFFAOYSA-N
Kind: experiment
Temperature: 77 K
Tabular data in the source: 0
pressure (bar)	uptake (cm3(STP)/g)
0.012078	261.685
0.006612	229.104
0.005566	201
0.00417	168.527
0.006496	87.3607
0.005566	42.2945
0.005265	14.5619
0.053713	287.139
0.087207	295.904
0.120702	300.671
0.154196	305.822
0.18769	310.666
0.220885	320.618
0.243266	318.113
0.288655	320.441
0.31905	327.043
0.331435	354.902
0.359347	364.846
0.359646	328.526
0.39314	373.34
0.400916	333.535
0.423544	385.247
0.435128	336.593
0.45983	397.164
0.466808	341.882
0.497511	407.467
0.500302	346.188
0.5325	415.87
0.539079	352.251
0.564798	423.691
0.572175	355.415
0.600784	437.223
0.606067	361.478
0.632743	444.358
0.638465	367.717
0.669168	450.909
0.677541	374.79
0.718386	469.204
0.714923	381.249
0.760375	391.95
0.766859	480.587
0.801749	487.046
0.814808	402.601
0.840825	496.041
0.847803	410.466
0.894889	423.38
0.908113	511.474
0.945915	449.947
0.972708	549.698
0.976895	476.097
0.989456	507.836
1.00817	588.578
0.292694	348.488
0.254075	339.53
0.026424	275.028
0.038619	283.091
0.067076	292.945
0.105695	300.112
0.00813	248.152
0.006098	142.441
0.00813	106.607
0.00813	63.6058
