Adsorption isotherm of Methane on ACOF-1
DOI: 10.1039/c4cc05665e
Article source: Figure 3c
Adsorbate Methane: InChIKey VNWKTOKETHGBQD-UHFFFAOYSA-N
Kind: experiment
Temperature: 298 K
Tabular data in the source: 0
pressure (bar)	uptake (mg/g)
0.014995	0.135555
0.042923	0.36466
0.08035	0.663474
0.100838	0.828211
0.154236	1.23036
0.181598	1.42763
0.204979	1.63005
0.237277	1.87743
0.262354	2.02076
0.324859	2.48314
0.391354	2.983
0.457848	3.47394
0.523012	3.93045
0.588177	4.36656
0.654671	4.80394
0.721165	5.2562
0.78633	5.72844
0.851494	6.16964
0.917989	6.66058
0.981823	7.13069
0.129219	1.06149
