Adsorption isotherm of Methane on ACOF-1
DOI: 10.1039/c4cc05665e
Article source: Figure 3c
Adsorbate Methane: InChIKey VNWKTOKETHGBQD-UHFFFAOYSA-N
Kind: experiment
Temperature: 273 K
Tabular data in the source: 0
pressure (bar)	uptake (mg/g)
0.017655	0.247075
0.042923	0.617568
0.08035	1.11998
0.111127	1.52039
0.132261	1.81213
0.17967	2.42112
0.204979	2.72924
0.237277	3.173
0.261025	3.43824
0.326189	4.24159
0.392683	5.04495
0.459178	5.8483
0.523012	6.5624
0.589507	7.31576
0.654671	8.06794
0.719836	8.82964
0.78633	9.54373
0.851494	10.3173
0.917989	11.0255
0.983153	11.7574
0.158149	2.12298
