Adsorption isotherm of Carbon Dioxide on ACOF-1
DOI: 10.1039/c4cc05665e
Article source: Figure 3a
Adsorbate Carbon Dioxide: InChIKey CURLTUGMZLYLDI-UHFFFAOYSA-N
Kind: experiment
Temperature: 273 K
Tabular data in the source: 0
pressure (bar)	uptake (mg/g)
0.032323	6.58001
0.048354	9.01148
0.073066	13.089
0.098041	16.8369
0.127699	22.9827
0.162749	28.3268
0.197799	34.4726
0.236894	41.5091
0.275988	48.6347
0.315083	55.5821
0.36631	64.4891
0.417538	73.5741
0.468765	82.5702
0.515948	91.1208
0.565827	99.6715
0.617054	108.846
0.666934	117.574
0.714117	125.858
0.7613	133.874
0.805787	141.89
0.857014	150.441
0.905545	159.526
0.952963	167.529
0.998531	176.488
0.01173	3.10011
0.975562	172.443
