Adsorption isotherm of Hydrogen on ACOF-1
DOI: 10.1039/c4cc05665e
Article source: Figure 3b
Adsorbate Hydrogen: InChIKey UFHFLCQGNIYNRP-UHFFFAOYSA-N
Kind: experiment
Temperature: 77 K
Tabular data in the source: 0
pressure (bar)	uptake (mg/g)
0.014237	0.547638
0.038245	1.38147
0.076923	2.33565
0.102264	2.87238
0.128939	3.34947
0.155614	3.79675
0.182289	4.18438
0.20763	4.54717
0.234305	4.88511
0.26098	5.20317
0.325	5.87905
0.393021	6.51021
0.458374	7.03202
0.523728	7.50912
0.590415	7.94148
0.655769	8.32912
0.722456	8.69191
0.78781	9.01494
0.853163	9.32803
0.91985	9.61627
0.985204	9.84985
0.007737	0.432432
0.005803	0.259459
