Adsorption isotherm of Carbon Dioxide on ACOF-1
DOI: 10.1039/c4cc05665e
Article source: Figure 3a
Adsorbate Carbon Dioxide: InChIKey CURLTUGMZLYLDI-UHFFFAOYSA-N
Kind: experiment
Temperature: 298 K
Tabular data in the source: 0
pressure (bar)	uptake (mg/g)
0.034312	2.21386
0.054633	3.71693
0.086871	5.76681
0.070892	4.99233
0.135787	9.24815
0.16949	12.2053
0.212628	15.6344
0.255767	19.4644
0.293514	22.8491
0.348785	27.7161
0.40136	32.6022
0.456632	37.4883
0.509207	42.4889
0.560435	47.2986
0.611662	51.9748
0.662889	56.9627
0.716813	61.9506
0.770736	67.0721
0.819267	71.7482
0.870495	76.6916
0.919218	81.9594
0.950417	85.8912
0.981616	89.6321
0.998563	91.6553
0.017595	1.16254
0.00391	0.968784
