Adsorption isotherm of Nitrogen on ACOF-1 prepared in Ethanol
DOI: 10.1039/c4cc05665e
Article source: Figure S9c
Adsorbate Nitrogen: InChIKey IJGRMHOSHXDMSA-UHFFFAOYSA-N
Kind: experiment
Temperature: 77 K
Tabular data in the source: 0
pressure (bar)	uptake (cm3(STP)/g)
0.010955	201.052
0.009458	167.394
0.008201	129.715
0.009039	85.316
0.007362	18.8096
0.028317	229.882
0.057654	244.165
0.086991	250.778
0.112975	254.322
0.151532	260.617
0.184082	263.518
0.212021	266.913
0.24066	272.776
0.271393	275.112
0.298216	282.712
0.330067	285.957
0.360975	291.206
0.409026	312.207
0.41688	293.816
0.459536	301.873
0.465016	329.494
0.49724	331.851
0.502684	309.127
0.533853	333.104
0.548363	318.028
0.587393	352.453
0.595774	323.569
0.623435	343.982
0.63042	329.247
0.658759	362.133
0.670374	338.381
0.688814	376.522
0.706416	345.787
0.714239	390.038
0.736591	352.082
0.744973	396.21
0.76509	358.377
0.79736	411.794
0.8253	372.449
0.833682	413.182
0.857431	381.707
0.86232	417.626
0.889142	423.921
0.891657	391.758
0.924253	419.628
0.93189	405.282
0.981179	431.306
0.979667	437.913
1.00272	451.601
0.372339	308.315
0.3113	283.146
0.008139	47.6404
