Adsorption isotherm of Hydrogen on ACOF-1
DOI: 10.1039/c4cc05665e
Article source: Figure 3b
Adsorbate Hydrogen: InChIKey UFHFLCQGNIYNRP-UHFFFAOYSA-N
Kind: experiment
Temperature: 87 K
Tabular data in the source: 0
pressure (bar)	uptake (mg/g)
0.016905	0.252639
0.036911	0.556501
0.076923	1.04602
0.199294	2.28161
0.229637	2.53693
0.25998	2.77547
0.325	3.27244
0.394355	3.72966
0.458374	4.12723
0.525062	4.49499
0.590415	4.8553
0.658436	5.19075
0.722456	5.48893
0.78781	5.77966
0.853163	6.05548
0.91985	6.32633
0.985204	6.57282
0.007737	0.12973
0.181818	2.11892
0.152805	1.88108
0.131528	1.64324
0.104449	1.34054
