Adsorption isotherm of Nitrogen on ACOF-1
DOI: 10.1039/c4cc05665e
Article source: Figure 2
Adsorbate Nitrogen: InChIKey IJGRMHOSHXDMSA-UHFFFAOYSA-N
Kind: experiment
Temperature: 77 K
Tabular data in the source: 0
pressure (bar)	uptake (cm3(STP)/g)
0.008571	235.754
0.005984	221.802
0.005695	212.857
0.004298	201.723
0.003382	188.311
0.003816	172.61
0.003816	155.573
0.003816	138.537
0.003816	121.383
0.003816	104.347
0.003816	86.9556
0.003382	70.5015
0.003816	52.41
0.003816	35.0189
0.01858	247.126
0.066604	263.558
0.081149	264.814
0.09705	267.567
0.107457	269.503
0.147897	273.539
0.165373	276.117
0.195343	279.404
0.206907	283.739
0.235022	284.445
0.2442	282.28
0.266734	289.844
0.282072	286.668
0.298165	293.084
0.329773	291.918
0.362487	295.55
0.37635	290.167
0.393375	299.74
0.420074	293.659
0.425416	305.163
0.456643	310.166
0.463899	296.086
0.510652	300.073
0.522475	314.803
0.553824	319.986
0.555524	304.359
0.587263	323.595
0.608752	308.307
0.620571	326.926
0.6471	310.451
0.652569	331.919
0.691911	314.237
0.692591	337.647
0.717357	341.535
0.731874	318.022
0.750665	344.847
0.774984	322.622
0.782404	349.051
0.818603	326.513
0.822685	352.791
0.84782	356.058
0.873277	333.388
0.890623	360.362
0.905843	336.951
0.914202	363.238
0.943796	344.07
0.947189	363.353
0.97971	363.278
0.991265	358.943
1.00482	371.246
0.002335	16.8153
0.001167	0.764331
0.053698	259.873
0.044359	258.344
0.032685	255.287
0.025681	250.701
0.32919	284.331
0.492617	314.904
