Adsorption isotherm of Methane on PCN-124
DOI: 10.1039/C2cc34622b
Adsorbate Methane: InChIKey VNWKTOKETHGBQD-UHFFFAOYSA-N
Temperature: 295 K
Tabular data in the source: 0
pressure (bar)	uptake (cm3(STP)/g)
0.0389665	1.53396
0.0689357	2.29326
0.0869116	2.28009
0.116871	2.25814
0.143845	3.01964
0.176819	4.55798
0.197791	4.54262
0.221768	5.30631
0.251728	5.28436
0.278692	5.26461
0.332638	6.7876
0.389581	8.30839
0.413549	8.29083
0.440522	9.05233
0.470472	8.24914
0.497445	9.01063
0.548386	9.75457
0.572364	10.5183
0.602333	11.2776
0.629297	11.2578
0.659256	11.2359
0.68623	11.9973
0.710198	11.9798
0.737161	11.96
0.788102	12.704
0.81208	13.4677
0.842049	14.227
0.869013	14.2072
0.898982	14.9665
0.922959	15.7302
0.970885	14.9138
1.00085	14.8919
1.03081	15.6512
1.05179	15.6358
1.07875	15.6161
