Adsorption isotherm of Carbon Dioxide on PCN-124
DOI: 10.1039/C2cc34622b
Adsorbate Carbon Dioxide: InChIKey CURLTUGMZLYLDI-UHFFFAOYSA-N
Temperature: 283 K
Tabular data in the source: 0
pressure (bar)	uptake (cm3(STP)/g)
0.0150829	8.5827
0.0390788	10.9089
0.063131	17.9225
0.0901697	24.1527
0.117208	30.3829
0.144247	36.6131
0.171277	42.062
0.198315	48.2922
0.222349	53.7434
0.249369	58.4111
0.276398	63.86
0.303418	68.5278
0.333443	73.9745
0.360463	78.6422
0.387483	83.3099
0.414503	87.9776
0.441514	91.8641
0.468534	96.5318
0.495545	100.418
0.519559	104.307
0.54657	108.193
0.573581	112.08
0.600591	115.966
0.627593	119.072
0.654603	122.958
0.681605	126.063
0.708606	129.168
0.732621	133.057
0.759622	136.162
0.813615	141.592
0.840616	144.697
0.867608	147.021
0.891614	150.128
0.918606	152.452
0.945588	153.995
0.972589	157.1
0.999572	158.643
1.02656	160.967
1.05056	163.293
1.07755	165.617
