Adsorption isotherm of Methane on PCN-124
DOI: 10.1039/C2cc34622b
Adsorbate Methane: InChIKey VNWKTOKETHGBQD-UHFFFAOYSA-N
Temperature: 273 K
Tabular data in the source: 0
pressure (bar)	uptake (cm3(STP)/g)
0.0689544	3.85574
0.0959276	4.61723
0.119905	5.38092
0.143891	6.92585
0.170874	8.46859
0.197847	9.23008
0.22482	9.99157
0.248798	10.7553
0.278767	11.5146
0.305749	13.0573
0.335719	13.8166
0.362692	14.5781
0.413651	16.8845
0.440625	17.646
0.467598	18.4075
0.521554	20.7117
0.545531	21.4754
0.572504	22.2369
0.599477	22.9984
0.62645	23.7599
0.680397	25.2829
0.70737	26.0444
0.731347	26.8081
0.761316	27.5673
0.78829	28.3288
0.815263	29.0903
0.83924	29.854
0.866213	30.6155
0.896173	30.5936
0.923146	31.3551
0.944128	32.1209
0.974106	33.6615
0.998074	33.6439
1.02804	34.4032
1.05202	35.1669
1.07899	35.9284
