Adsorption isotherm of Carbon Dioxide on PCN-124
DOI: 10.1039/C2cc34622b
Adsorbate Carbon Dioxide: InChIKey CURLTUGMZLYLDI-UHFFFAOYSA-N
Temperature: 295 K
Tabular data in the source: 0
pressure (bar)	uptake (cm3(STP)/g)
0.030016	4.66551
0.0630561	11.6726
0.0900667	15.559
0.141101	24.1154
0.195113	31.1071
0.222124	34.9935
0.249135	38.88
0.276136	41.9852
0.306143	45.8695
0.333144	48.9747
0.360145	52.08
0.414157	59.0716
0.438162	62.1791
0.465164	65.2843
0.492165	68.3895
0.519157	70.7135
0.546158	73.8187
0.573159	76.9239
0.624157	82.3553
0.651158	85.4605
0.67815	87.7845
0.705142	90.1085
0.732134	92.4325
0.759126	94.7565
0.783122	97.0826
0.816115	100.183
0.837105	101.731
0.864097	104.055
0.891089	106.379
0.918072	107.921
0.945064	110.245
0.996042	114.114
1.02303	116.438
1.05002	117.981
1.077	119.524
