Adsorption isotherm of Carbon Dioxide on PCN-124
DOI: 10.1039/C2cc34622b
Adsorbate Carbon Dioxide: InChIKey CURLTUGMZLYLDI-UHFFFAOYSA-N
Temperature: 273 K
Tabular data in the source: 0
pressure (bar)	uptake (cm3(STP)/g)
0.0150642	7.02022
0.0391537	17.1588
0.0632246	25.7349
0.0902914	34.3089
0.117358	42.8828
0.144425	51.4567
0.19854	67.0421
0.276698	88.8598
0.306732	95.0878
0.333771	101.318
0.387849	113.778
0.414878	119.227
0.441917	125.458
0.468946	130.907
0.495966	135.574
0.51999	140.244
0.57404	150.361
0.628061	158.134
0.706087	169.014
0.733098	172.901
0.760109	176.787
0.78711	179.892
0.814111	182.997
0.841113	186.103
0.868114	189.208
0.892119	192.315
0.919111	194.639
0.946112	197.744
0.973104	200.068
1.00011	203.174
1.0271	205.498
1.05708	207.038
1.08108	210.146
