Adsorption isotherm of Nitrogen on CuBTC
DOI: 10.1039/B921558a
Adsorbate Nitrogen: InChIKey IJGRMHOSHXDMSA-UHFFFAOYSA-N
Temperature: 77 K
Tabular data in the source: 0
pressure (bar)	uptake (cm3(STP)/g)
0.00619484	230.598
0.0477074	241.959
0.121993	250.699
0.189724	252.446
0.253086	254.194
0.325186	255.942
0.412581	256.816
0.458464	256.816
0.502161	255.942
0.631069	256.816
0.836447	258.564
0.884514	256.816
0.989388	260.312
