Adsorption isotherm of Nitrogen on CuBTC
DOI: 10.1039/B921558a
Adsorbate Nitrogen: InChIKey IJGRMHOSHXDMSA-UHFFFAOYSA-N
Temperature: 77 K
Tabular data in the source: 0
pressure (bar)	uptake (cm3(STP)/g)
0.00619484	259.438
0.00837971	268.178
0.0302285	276.043
0.0542621	282.161
0.0870352	286.53
0.161321	288.278
0.231237	290.026
0.318632	290.026
0.412581	289.152
0.499976	290.026
0.635439	289.152
0.744682	287.404
0.834262	285.657
0.947875	286.53
0.991573	291.774
