Adsorption isotherm of Nitrogen on [Cu(bcppm)H2O]
DOI: 10.1021/Ja4032049
Adsorbate Nitrogen: InChIKey IJGRMHOSHXDMSA-UHFFFAOYSA-N
Temperature: 293 K
Tabular data in the source: 0
pressure (bar)	uptake (mmol/g)
0.0765491	0.0332543
0.155493	0.0389749
0.217275	0.0446954
0.330542	0.050416
0.448958	0.0618571
0.563942	0.0790189
0.680641	0.0847394
0.797341	0.09046
0.912325	0.101901
1.02731	0.110482
1.08566	0.116203
1.14401	0.119063
1.20236	0.119063
