Adsorption isotherm of Carbon Dioxide on [Cu(bcppm)H2O]
DOI: 10.1021/Ja4032049
Adsorbate Carbon Dioxide: InChIKey CURLTUGMZLYLDI-UHFFFAOYSA-N
Temperature: 293 K
Tabular data in the source: 0
pressure (bar)	uptake (mmol/g)
0.0027537	0.0418351
0.00790222	0.173408
0.0199154	0.396511
0.045658	0.665377
0.102292	0.937105
0.155493	1.07726
0.217275	1.17451
0.330542	1.29178
0.452391	1.37759
0.565658	1.43765
0.737275	1.5206
0.910608	1.58639
1.02731	1.63501
1.14572	1.68078
1.20064	1.70366
