Adsorption isotherm of Carbon Dioxide, Methane on Activated carbon A
DOI: 10.1007/s10450-005-6043-z
Article source: Figure 2
Adsorbate Carbon Dioxide: InChIKey CURLTUGMZLYLDI-UHFFFAOYSA-N
Adsorbate Methane: InChIKey VNWKTOKETHGBQD-UHFFFAOYSA-N
Kind: experiment
Temperature: 298 K
Tabular data in the source: 0
pressure (bar)	Carbon Dioxide fraction	Carbon Dioxide uptake (mmol/g)	Methane fraction	Methane uptake (mmol/g)	total uptake (mmol/g)
7.5	1	6.56	0	0	
7.5	0.754	5.71	0.246	0.436	
7.5	0.511	4.43	0.489	1.05	
7.5	0.342	3.34	0.658	1.66	
7.5	0.26	2.59	0.74	1.92	
7.5	0	0	1	3.53	
