Adsorption isotherm of Methane on Activated carbon A
DOI: 10.1007/s10450-005-6043-z
Article source: Figure 1
Adsorbate Methane: InChIKey VNWKTOKETHGBQD-UHFFFAOYSA-N
Kind: experiment
Temperature: 323 K
Tabular data in the source: 0
pressure (bar)	uptake (mmol/g)
0.347	0.162
0.52	0.446
1.39	0.933
2.08	1.38
3.12	1.74
4.16	2.03
4.86	2.27
5.72	2.48
7.8	2.96
9.02	3.04
9.88	3.17
12	3.49
12.3	3.61
13.9	3.77
15.4	3.9
17.2	4.1
20.5	4.3
21	4.42
21.8	4.42
24.5	4.71
25.3	4.63
26.5	4.71
27.7	4.83
30	4.83
31.7	4.91
34.5	5.03
35.5	4.99
36.8	5.15
39	5.28
40.1	5.11
40.9	5.28
44.4	5.28
48.9	5.36
52.9	5.48
