Adsorption isotherm of Carbon Dioxide, Methane on Activated carbon A
DOI: 10.1007/s10450-005-6043-z
Article source: Figure 2
Adsorbate Carbon Dioxide: InChIKey CURLTUGMZLYLDI-UHFFFAOYSA-N
Adsorbate Methane: InChIKey VNWKTOKETHGBQD-UHFFFAOYSA-N
Kind: experiment
Temperature: 298 K
Tabular data in the source: 0
pressure (bar)	Carbon Dioxide fraction	Carbon Dioxide uptake (mmol/g)	Methane fraction	Methane uptake (mmol/g)	total uptake (mmol/g)
2.5	1	4.4	0	0	
2.5	0.749	3.51	0.251	0.283	
2.5	0.511	2.72	0.489	0.719	
2.5	0.331	1.92	0.669	1.07	
2.5	0.243	1.5	0.757	1.35	
2.5	0	0	1	2.07	
