Adsorption isotherm of Carbon Dioxide, Methane on Activated carbon A
DOI: 10.1007/s10450-005-6043-z
Article source: Figure 2
Adsorbate Carbon Dioxide: InChIKey CURLTUGMZLYLDI-UHFFFAOYSA-N
Adsorbate Methane: InChIKey VNWKTOKETHGBQD-UHFFFAOYSA-N
Kind: experiment
Temperature: 323 K
Tabular data in the source: 0
pressure (bar)	Carbon Dioxide fraction	Carbon Dioxide uptake (mmol/g)	Methane fraction	Methane uptake (mmol/g)	total uptake (mmol/g)
10	1	0	0	5.76	
10	0.729	0.538	0.271	4.65	
10	0.499	1.09	0.501	3.6	
10	0.317	1.76	0.683	2.49	
10	0.254	2.1	0.746	2.05	
10	0	3.21	1	0	
