Adsorption isotherm of Carbon Dioxide, Methane on Activated carbon A
DOI: 10.1007/s10450-005-6043-z
Article source: Figure 2
Adsorbate Carbon Dioxide: InChIKey CURLTUGMZLYLDI-UHFFFAOYSA-N
Adsorbate Methane: InChIKey VNWKTOKETHGBQD-UHFFFAOYSA-N
Kind: experiment
Temperature: 298 K
Tabular data in the source: 0
pressure (bar)	Carbon Dioxide fraction	Carbon Dioxide uptake (mmol/g)	Methane fraction	Methane uptake (mmol/g)	total uptake (mmol/g)
10	1	7.08	0	0.0218	
10	0.751	6.21	0.249	0.458	
10	0.726	6.1	0.274	0.501	
10	0.511	4.95	0.489	1.07	
10	0.339	3.73	0.661	1.7	
10	0.251	2.86	0.749	2.14	
10	0.003	0	0.997	3.86	
