Adsorption isotherm of Carbon Dioxide on Norit R0.8 Extra activated carbon
DOI: 10.1007/s10450-005-6043-z
Article source: Figure 1
Adsorbate Carbon Dioxide: InChIKey CURLTUGMZLYLDI-UHFFFAOYSA-N
Kind: experiment
Temperature: 298 K
Tabular data in the source: 0
pressure (bar)	uptake (mmol/g)
0.348	0.491
0.348	1.35
0.696	1.8
1.22	2.37
1.74	3.07
2.43	3.89
4	4.91
4.52	5.2
5.22	5.65
5.91	5.97
7.3	6.63
9.74	7.48
10.6	7.73
11.7	7.93
13.2	8.46
15.5	8.83
16.2	8.99
17.6	9.32
18.3	9.36
20	9.57
21.7	9.85
23.8	10.1
25.6	10.3
