Adsorption isotherm of Carbon Dioxide, Methane on Activated carbon A
DOI: 10.1007/s10450-005-6043-z
Article source: Figure 2
Adsorbate Carbon Dioxide: InChIKey CURLTUGMZLYLDI-UHFFFAOYSA-N
Adsorbate Methane: InChIKey VNWKTOKETHGBQD-UHFFFAOYSA-N
Kind: experiment
Temperature: 298 K
Tabular data in the source: 0
pressure (bar)	Carbon Dioxide fraction	Carbon Dioxide uptake (mmol/g)	Methane fraction	Methane uptake (mmol/g)	total uptake (mmol/g)
5	1	5.84	0	0	
5	0.9379	5.45	0.0621	0.153	
5	0.754	4.9	0.246	0.392	
5	0.492	3.64	0.508	0.916	
5	0.364	2.88	0.636	1.35	
5	0.336	2.7	0.664	1.46	
5	0.263	2.25	0.737	1.74	
5	0.164	1.46	0.836	2.22	
5	0	0	1	2.94	
