Adsorption isotherm of Carbon Dioxide on Activated carbon A
DOI: 10.1007/s10450-005-6043-z
Article source: Figure 1
Adsorbate Carbon Dioxide: InChIKey CURLTUGMZLYLDI-UHFFFAOYSA-N
Kind: experiment
Temperature: 323 K
Tabular data in the source: 0
pressure (bar)	uptake (mmol/g)
0.347	0.771
0.52	1.06
1.91	2.03
2.95	2.96
4.86	4.3
5.72	4.63
8.15	5.36
9.71	5.68
12	6.25
13	6.37
16.5	6.86
17.2	6.94
20.1	7.18
20.8	7.34
24.1	7.47
25.1	7.63
26.9	7.71
28.6	7.79
29.1	7.91
31.4	7.91
32.8	7.95
34.5	7.95
36.6	8.08
