Adsorption isotherm of Carbon Dioxide, Methane on Norit R0.8 Extra activated carbon
DOI: 10.1007/s10450-005-6043-z
Article source: Figure 2
Adsorbate Carbon Dioxide: InChIKey CURLTUGMZLYLDI-UHFFFAOYSA-N
Adsorbate Methane: InChIKey VNWKTOKETHGBQD-UHFFFAOYSA-N
Kind: experiment
Temperature: 298 K
Tabular data in the source: 0
pressure (bar)	Carbon Dioxide fraction	Carbon Dioxide uptake (mmol/g)	Methane fraction	Methane uptake (mmol/g)	total uptake (mmol/g)
10	1	7.3	0	0	
10	0.747	6.3	0.253	0.589	
10	0.5	4.6	0.5	1.29	
10	0.304	2.96	0.696	2.18	
10	0.213	2.22	0.787	2.64	
10	0.006	0	0.994	3.99	
