Adsorption isotherm of Carbon Dioxide, Methane on Norit R0.8 Extra activated carbon
DOI: 10.1007/s10450-005-6043-z
Article source: Figure 2
Adsorbate Carbon Dioxide: InChIKey CURLTUGMZLYLDI-UHFFFAOYSA-N
Adsorbate Methane: InChIKey VNWKTOKETHGBQD-UHFFFAOYSA-N
Kind: experiment
Temperature: 298 K
Tabular data in the source: 0
pressure (bar)	Carbon Dioxide fraction	Carbon Dioxide uptake (mmol/g)	Methane fraction	Methane uptake (mmol/g)	total uptake (mmol/g)
2.5	1	3.66	0	0	
2.5	0.747	3.01	0.253	0.283	
2.5	0.491	2.14	0.509	0.741	
2.5	0.284	1.33	0.716	1.2	
2.5	0	0	1	1.85	
