Adsorption isotherm of Carbon Dioxide on Activated carbon A
DOI: 10.1007/s10450-005-6043-z
Article source: Figure 1
Adsorbate Carbon Dioxide: InChIKey CURLTUGMZLYLDI-UHFFFAOYSA-N
Kind: experiment
Temperature: 273 K
Tabular data in the source: 0
pressure (bar)	uptake (mmol/g)
0	1.79
0.173	2.19
0.347	2.6
0.52	3.9
1.04	4.38
2.43	6.17
2.77	6.86
5.2	7.87
7.63	8.6
10.2	9.09
13.2	9.33
14.9	9.46
16.5	9.58
18.7	9.66
20.5	9.66
