Adsorption isotherm of Methane on Activated carbon A
DOI: 10.1007/s10450-005-6043-z
Article source: Figure 1
Adsorbate Methane: InChIKey VNWKTOKETHGBQD-UHFFFAOYSA-N
Kind: experiment
Temperature: 273 K
Tabular data in the source: 0
pressure (bar)	uptake (mmol/g)
0	0.812
0.173	1.46
0.52	1.95
1.21	2.43
2.08	2.76
3.99	3.69
6.07	4.3
7.28	4.59
8.5	4.79
11.6	5.32
12.5	5.32
16.8	5.84
21.5	6.13
25.5	6.37
29.8	6.45
33.8	6.49
37.8	6.57
