Adsorption isotherm of Carbon Dioxide, Methane on Norit R0.8 Extra activated carbon
DOI: 10.1007/s10450-005-6043-z
Article source: Figure 2
Adsorbate Carbon Dioxide: InChIKey CURLTUGMZLYLDI-UHFFFAOYSA-N
Adsorbate Methane: InChIKey VNWKTOKETHGBQD-UHFFFAOYSA-N
Kind: experiment
Temperature: 298 K
Tabular data in the source: 0
pressure (bar)	Carbon Dioxide fraction	Carbon Dioxide uptake (mmol/g)	Methane fraction	Methane uptake (mmol/g)	total uptake (mmol/g)
7.5	1	6.5	0	0	
7.5	0.77	5.6	0.23	0.414	
7.5	0.744	5.47	0.256	0.523	
7.5	0.705	5.34	0.295	0.523	
7.5	0.5	4.05	0.5	1.16	
7.5	0.287	2.35	0.713	2.03	
7.5	0.25	2.16	0.75	2.18	
