Adsorption isotherm of Carbon Dioxide, Methane on Norit R0.8 Extra activated carbon
DOI: 10.1007/s10450-005-6043-z
Article source: Figure 2
Adsorbate Carbon Dioxide: InChIKey CURLTUGMZLYLDI-UHFFFAOYSA-N
Adsorbate Methane: InChIKey VNWKTOKETHGBQD-UHFFFAOYSA-N
Kind: experiment
Temperature: 298 K
Tabular data in the source: 0
pressure (bar)	Carbon Dioxide fraction	Carbon Dioxide uptake (mmol/g)	Methane fraction	Methane uptake (mmol/g)	total uptake (mmol/g)
5	1	5.34	0	0	
5	0.759	4.53	0.241	0.436	
5	0.739	4.4	0.261	1.02	
5	0.509	3.29	0.491	1.09	
5	0.48	3.1	0.52	1.85	
5	0.25	1.74	0.75	2.03	
5	0.202	1.42	0.798	2.75	
