Adsorption isotherm of Carbon Dioxide on Activated carbon A
DOI: 10.1007/s10450-005-6043-z
Article source: Figure 1
Adsorbate Carbon Dioxide: InChIKey CURLTUGMZLYLDI-UHFFFAOYSA-N
Kind: experiment
Temperature: 298 K
Tabular data in the source: 0
pressure (bar)	uptake (mmol/g)
0.347	1.74
1.21	3.08
1.56	3.65
2.95	4.5
3.99	5.15
5.55	5.97
6.24	6.21
8.32	6.82
9.02	6.98
11.4	7.47
12.3	7.59
15.1	7.91
16.5	8.08
18.7	8.24
20.6	8.32
21.7	8.36
24.1	8.48
25.1	8.48
26.9	8.6
28.3	8.48
