Adsorption isotherm of Carbon Dioxide, Methane on Activated carbon A
DOI: 10.1007/s10450-005-6043-z
Article source: Figure 2
Adsorbate Carbon Dioxide: InChIKey CURLTUGMZLYLDI-UHFFFAOYSA-N
Adsorbate Methane: InChIKey VNWKTOKETHGBQD-UHFFFAOYSA-N
Kind: experiment
Temperature: 273 K
Tabular data in the source: 0
pressure (bar)	Carbon Dioxide fraction	Carbon Dioxide uptake (mmol/g)	Methane fraction	Methane uptake (mmol/g)	total uptake (mmol/g)
5	1	7.63	0	0	
5	0.744	6.77	0.256	0.404	
5	0.496	5.36	0.504	0.997	
5	0.314	3.94	0.686	1.78	
5	0.254	3.37	0.746	2.05	
5	0	0	1	4.07	
