Adsorption isotherm of Methane on Activated carbon A
DOI: 10.1007/s10450-005-6043-z
Article source: Figure 1
Adsorbate Methane: InChIKey VNWKTOKETHGBQD-UHFFFAOYSA-N
Kind: experiment
Temperature: 298 K
Tabular data in the source: 0
pressure (bar)	uptake (mmol/g)
0	0.771
0.867	1.42
1.73	1.79
2.77	2.35
3.29	2.43
4.34	2.8
5.2	3.04
5.72	3.25
7.28	3.57
8.67	3.69
9.71	3.94
11.6	4.1
12	4.34
14.4	4.5
17.5	4.79
21	4.99
23.2	5.15
26.9	5.36
29.5	5.36
30.7	5.52
32.1	5.52
35	5.52
36.2	5.72
40.6	5.8
43.5	5.88
