Adsorption isotherm of Methane on Norit R0.8 Extra activated carbon
DOI: 10.1007/s10450-005-6043-z
Article source: Figure 1
Adsorbate Methane: InChIKey VNWKTOKETHGBQD-UHFFFAOYSA-N
Kind: experiment
Temperature: 298 K
Tabular data in the source: 0
pressure (bar)	uptake (mmol/g)
0	0
2.78	2.17
5.22	2.94
6.09	3.11
7.48	3.52
10.4	4.17
15	4.74
20.2	5.31
24.2	5.63
25.4	5.84
28.3	5.96
32	6.2
33.7	6.36
38.6	6.52
42.3	6.64
44.9	6.72
