Adsorption isotherm of Nitrogen on COF-JLU3 in dioxane
DOI: 10.1039/c6cc01476c
Article source: Figure S3f
Adsorbate Nitrogen: InChIKey IJGRMHOSHXDMSA-UHFFFAOYSA-N
Kind: experiment
Temperature: 77 K
Tabular data in the source: 0
pressure (bar)	uptake (cm3(STP)/g)
0.015909	48.6427
0.009417	16.6023
0.071336	75.0695
0.106798	82.0088
0.152242	89.4824
0.196388	95.0864
0.243131	99.533
0.288576	107.007
0.33402	113.449
0.379465	119.634
0.424909	125.819
0.470354	132.004
0.51688	138.791
0.561243	145.663
0.606687	152.106
0.652132	160.61
0.69508	168.163
0.735533	176.054
0.795952	191.118
0.833909	202.445
0.879354	220.914
0.919807	235.078
0.954013	250.035
0.973489	275.591
1.00178	309.823
0.038683	67.9612
0.011231	33.9806
0.763681	181.692
0.220592	107.522
0.252869	122.996
0.289326	132.273
0.344003	146.499
0.369727	151.719
0.409328	163.445
0.440144	172.523
0.492823	184.467
0.52229	191.181
0.554556	199.412
0.587219	206.624
0.642393	217.714
0.681346	231.093
0.738316	241.32
0.764603	246.042
0.798203	251.771
0.820573	257.776
0.879354	266.045
0.911544	279.336
0.936543	290.379
0.989449	323.346
0.965504	306.511
1.01095	342.488
0.192168	96.3939
0.319448	138.003
0.466694	178.225
0.616435	212.899
0.70628	235.09
0.85103	262.829
