Adsorption isotherm of Nitrogen on COF-JLU3 in mesitylene
DOI: 10.1039/c6cc01476c
Article source: Figure S3d
Adsorbate Nitrogen: InChIKey IJGRMHOSHXDMSA-UHFFFAOYSA-N
Kind: experiment
Temperature: 77 K
Tabular data in the source: 0
pressure (bar)	uptake (cm3(STP)/g)
0.016364	29.4596
0.074085	49.0756
0.110794	54.9288
0.1465	57.8401
0.184336	62.1595
0.262102	71.11
0.298811	73.1426
0.338017	76.408
0.383461	80.2898
0.428905	84.6891
0.47435	89.0885
0.519794	94.0054
0.565239	99.4399
0.612847	105.694
0.66262	112.638
0.708064	118.331
0.753509	127.389
0.798953	137.481
0.844398	148.092
0.889842	164.654
0.929048	178.446
0.959928	196.45
0.996962	237.349
0.037435	42.4791
0.009983	13.9276
0.222116	66.8524
0.985797	225.627
0.972071	209.61
0.175066	63.6913
0.210339	70.3697
0.242836	78.0383
0.296813	87.9452
0.328278	96.6364
0.362239	106.566
0.397448	113.174
0.448879	122.567
0.484088	131.206
0.52304	137.244
0.573223	150.49
0.612176	157.132
0.643641	163.891
0.690081	173.737
0.717803	176.04
0.756755	183.437
0.815673	193.527
0.843395	199.02
0.873612	206.787
0.90383	215.567
0.951517	234.924
0.987873	249.825
1.00546	263.898
0.668845	169.916
0.783647	189.415
0.930892	224.234
0.541565	144.847
0.421772	119.777
0.264543	82.1727
