Adsorption isotherm of Nitrogen on COF-JLU3 in THF
DOI: 10.1039/c6cc01476c
Article source: Figure S3e
Adsorbate Nitrogen: InChIKey IJGRMHOSHXDMSA-UHFFFAOYSA-N
Kind: experiment
Temperature: 77 K
Tabular data in the source: 0
pressure (bar)	uptake (cm3(STP)/g)
0.007832	51.7291
0.002261	15.3632
0.050581	81.0107
0.09858	92.1873
0.137834	99.751
0.189581	106.954
0.226834	112.625
0.300573	120.176
0.337327	127.303
0.375332	132.366
0.420832	137.011
0.456338	142.848
0.501838	149.3
0.540008	154.062
0.612829	165.497
0.653332	173.319
0.690087	179.93
0.729341	189.3
0.774841	201.171
0.820342	213.042
0.882084	233.359
0.911343	245.094
0.947093	265.043
0.982844	291.891
1.00513	324.166
0.994104	304.154
0.849581	221.528
0.073714	87.5
0.028736	74.3056
0.013743	65.2778
0.006247	40.2778
0.004998	27.0833
0.572218	159.722
0.264869	116.667
0.334584	145.658
0.379117	155.133
0.491586	180.346
0.528287	190.801
0.589589	204.266
0.665328	215.868
0.732321	230.196
0.770579	238.759
0.823829	249.892
0.854258	256.841
0.893413	267.992
0.953593	294.624
0.996435	329.29
1.01209	349.043
0.97327	306.944
0.920796	279.167
0.800855	243.056
0.698405	223.611
0.630939	211.111
0.558474	197.222
0.458524	172.222
0.423541	163.889
0.3036	137.5
0.281111	130.556
0.186158	108.333
0.218642	115.278
0.246129	122.917
