Adsorption isotherm of Nitrogen on COF-JLU3 in mesitylene/dioxane
DOI: 10.1039/c6cc01476c
Article source: Figure S3b
Adsorbate Nitrogen: InChIKey IJGRMHOSHXDMSA-UHFFFAOYSA-N
Kind: experiment
Temperature: 77 K
Tabular data in the source: 0
pressure (bar)	uptake (cm3(STP)/g)
0.015084	22.6899
0.066766	41.3936
0.118448	47.0546
0.155968	50.2247
0.233063	55.3698
0.277647	58.6352
0.331636	63.358
0.383318	68.3397
0.43177	73.1272
0.486682	79.888
0.555748	87.3945
0.590046	93.0213
0.640738	102.045
0.686991	109.597
0.760387	123.689
0.809694	135.365
0.845234	144.337
0.918025	163.93
0.962257	183.267
1.00226	209.739
0.983449	194.986
0.88411	152.507
0.519042	82.1727
0.722686	114.206
0.091888	44.5682
0.039735	34.8189
0.199918	53.6212
0.008692	8.35655
0.186281	52.4891
0.224396	66.3772
0.300803	91.3128
0.376564	113.874
0.415619	123.011
0.451797	129.218
0.484308	132.13
0.537617	139.644
0.568182	146.312
0.605475	159.006
0.645705	169.711
0.696883	180.346
0.725711	186.399
0.764473	195.305
0.803593	202.491
0.83504	209.226
0.886966	217.068
0.91753	219.366
0.960587	221.929
0.993811	222.628
1.00848	247.746
0.6755	175.487
0.859276	213.092
0.511592	133.705
0.352651	105.85
0.320366	98.8858
