Adsorption isotherm of Nitrogen on COF-JLU3 in DMF
DOI: 10.1039/c6cc01476c
Article source: Figure S3a
Adsorbate Nitrogen: InChIKey IJGRMHOSHXDMSA-UHFFFAOYSA-N
Kind: experiment
Temperature: 77 K
Tabular data in the source: 0
pressure (bar)	uptake (cm3(STP)/g)
0.202939	156.301
0.232794	161.958
0.282977	170.599
0.32193	178.58
0.352645	183.402
0.405121	192.832
0.436519	198.864
0.464013	204.562
0.49348	209.753
0.524448	214.262
0.58087	224.06
0.634797	231.652
0.671717	237.894
0.718941	247.026
0.749158	251.613
0.788111	263.991
0.827063	280.295
0.863419	298.802
0.894581	318.117
0.925937	348.216
0.945168	371.126
0.972435	407.851
0.992236	432.677
1.00576	448.468
0.954601	385.794
0.904688	333.565
0.767425	258.357
0.847287	288.301
0.806108	270.195
0.258304	166.435
0.379345	188.719
0.554043	218.663
0.693802	242.34
0.610196	227.716
0.003926	52.7083
0.005294	86.8664
0.002748	11.8796
0.029888	117.25
0.056758	130.434
0.107691	142.309
0.146644	148.348
0.175858	152.272
0.201005	156.012
0.284065	165.641
0.317428	169.199
0.35638	172.847
0.394085	177.098
0.429293	180.536
0.46575	184.159
0.497216	187.295
0.536168	190.918
0.57512	195.748
0.614073	200.881
0.653025	206.919
0.691978	213.562
0.73093	220.506
0.769882	228.657
0.808835	239.224
0.850106	251.43
0.885928	266.925
0.930253	297.908
0.950037	317.081
0.965892	348.747
0.978876	371.105
0.991695	388.995
1.0036	411.619
0.011231	104.457
0.003744	69.6379
0.003744	37.6045
0.003744	23.6769
0.909679	279.248
0.250817	162.256
0.079862	137.883
0.22586	159.471
