Adsorption isotherm of Nitrogen on COF-JLU3
DOI: 10.1039/c6cc01476c
Article source: Figure 1
Adsorbate Nitrogen: InChIKey IJGRMHOSHXDMSA-UHFFFAOYSA-N
Kind: experiment
Temperature: 77 K
Tabular data in the source: 0
pressure (bar)	uptake (cm3(STP)/g)
0.011223	81.0361
0.009063	60.6635
0.008313	42.3131
0.008091	26.055
0.00926	10.5959
0.023631	113.915
0.049312	125.346
0.08053	133.108
0.111682	139.897
0.14375	145.767
0.17561	150.531
0.208938	154.591
0.247927	159.899
0.289918	163.772
0.322902	166.757
0.363392	170.971
0.399379	174.07
0.432363	179.314
0.465348	182.831
0.498332	186.605
0.531317	190.57
0.565464	193.989
0.598448	198.003
0.62744	200.347
0.660506	204.362
0.694406	210.118
0.727391	216.002
0.762569	223.384
0.794865	231.18
0.828589	240.927
0.86191	254.146
0.887015	265.275
0.925205	295.682
0.948966	320.703
0.982853	364.867
0.975232	343.994
0.99997	388.37
1.00616	409.495
1.01371	426.11
0.014261	99.3294
0.012009	90.5281
0.009757	71.6681
0.008256	51.9698
0.008256	34.7863
0.008256	17.6027
0.036777	120.285
0.015762	107.712
0.065298	130.344
0.095321	137.049
0.911925	280.386
0.991484	377.2
0.201198	154.377
0.235694	160.909
0.267691	167.275
0.298502	172.103
0.330661	178.752
0.366395	186.934
0.399379	192.348
0.434895	198.293
0.466522	203.143
0.499583	208.059
0.533903	213.828
0.566871	219.89
0.598285	224.633
0.63027	229.341
0.663254	235.273
0.696896	243.893
0.744234	253.058
0.771871	261.645
0.796191	268.525
0.827091	277.87
0.886819	313.691
0.904409	330.908
0.919898	346.893
0.940971	365.123
0.954256	383.692
0.97029	402.858
0.984373	425.307
1.00444	445.708
0.868393	300.503
0.847377	287.091
0.720533	247.695
