Adsorption isotherm of Nitrogen on COF-JLU3 in methanol
DOI: 10.1039/c6cc01476c
Article source: Figure S3c
Adsorbate Nitrogen: InChIKey IJGRMHOSHXDMSA-UHFFFAOYSA-N
Kind: experiment
Temperature: 77 K
Tabular data in the source: 0
pressure (bar)	uptake (cm3(STP)/g)
0.017683	67.9381
0.009888	21.7007
0.076921	97.6931
0.146499	112.723
0.181969	119.465
0.260678	129.527
0.298197	134.15
0.352586	141.622
0.402326	147.509
0.471904	156.844
0.50878	163.878
0.55852	174.003
0.596825	181.18
0.666403	194.608
0.716076	205.942
0.785797	225.908
0.829105	241.858
0.871163	259.686
0.909958	277.484
0.93599	304.657
0.970035	341.601
0.999322	391.609
0.983228	364.902
1.00825	424.791
0.753057	215.877
0.632969	188.022
0.430319	151.811
0.221414	124.652
0.102576	104.457
0.050037	90.5293
0.02752	80.7799
0.012509	54.3176
0.010007	38.9972
0.238601	146.227
0.273669	157.253
0.312717	167.368
0.366878	186.185
0.395818	192.344
0.431114	205.857
0.470162	219.492
0.514443	245.292
0.550761	257.081
0.586057	270.91
0.621353	280.411
0.667907	293.009
0.706956	306.337
0.743503	313.885
0.777547	320.225
0.829105	329.234
0.859896	335.959
0.95248	364.573
0.975039	389.314
0.993362	422.183
1.00294	464.381
0.210156	129.526
0.17513	115.599
0.33775	176.184
0.494116	225.627
0.645478	286.908
0.896914	344.011
0.928187	353.76
0.803094	324.513
