Adsorption isotherm of Nitrogen on Cu@COF-JLU3
DOI: 10.1039/c6cc01476c
Article source: Figure S16
Adsorbate Nitrogen: InChIKey IJGRMHOSHXDMSA-UHFFFAOYSA-N
Kind: experiment
Temperature: 77 K
Tabular data in the source: 0
pressure (bar)	uptake (cm3(STP)/g)
0.003143	14.1671
0.064679	36.7566
0.095262	39.8393
0.148086	42.2307
0.182682	45.6174
0.224543	48.8254
0.263466	51.5043
0.30239	55.8714
0.344093	59.4679
0.385797	64.8625
0.42472	69.7434
0.466424	74.4958
0.505347	79.8904
0.547051	85.9273
0.588755	92.8633
0.626288	100.413
0.666601	107.891
0.702745	117.268
0.744448	127.415
0.783372	140.131
0.822295	153.617
0.859828	169.373
0.897362	189.71
0.930724	218.353
0.965478	261.07
0.983549	288.783
0.999149	330.013
1.00579	370.773
0.016025	24.6014
0.038213	32.3462
0.189475	46.5302
0.225933	73.4682
0.256516	83.6144
0.287098	93.1655
0.318211	104.383
0.348264	116.055
0.378846	129.774
0.409429	144.089
0.440012	155.953
0.47306	170.07
0.503642	182.588
0.539156	196.121
0.570971	208.873
0.601554	220.457
0.632136	232.239
0.663952	244.068
0.693918	253.701
0.723268	262.672
0.753851	272.294
0.783771	278.889
0.815834	287.366
0.845599	294.124
0.934895	286.545
0.965478	298.595
0.9905	314.209
1.00687	374.552
