Adsorption isotherm of Nitrogen on UiO-67-bipy(N)
DOI: 10.1021/acs.iecr.7b01457
Article source: Figure 8 (bottom)
Adsorbate Nitrogen: InChIKey IJGRMHOSHXDMSA-UHFFFAOYSA-N
Kind: experiment
Temperature: 77 K
Tabular data in the source: 0
pressure (bar)	uptake (cm3(STP)/g)
0.000914	25.0996
0.001392	63.6516
0.001392	95.8489
0.001392	128.893
0.001392	163.633
0.000436	197.525
0.000914	233.111
0.001392	238.195
0.002349	267.003
0.001392	295.811
0.002349	324.619
0.000436	354.274
0.000436	383.93
0.003783	412.738
0.003305	439.004
0.005217	466.118
0.003783	490.689
0.008564	516.955
0.009999	544.069
0.012867	549.576
0.016214	554.66
0.031514	573.301
0.040598	581.35
0.051595	591.518
0.078848	604.227
0.113273	613.547
0.140048	617.784
0.167301	621.597
0.191686	622.867
0.219417	623.715
0.245236	625.409
0.270098	627.104
0.296395	627.528
0.319823	627.951
0.37146	628.799
0.415448	630.493
0.468042	630.493
0.518723	631.341
0.567491	631.341
0.620085	632.188
0.670766	633.035
0.719535	635.577
0.774041	634.73
0.821853	636.424
0.873491	637.272
0.92226	638.119
0.969116	639.813
0.993022	641.508
1.00784	649.134
