Adsorption isotherm of Nitrogen on UiO-67-Pt-PSF(N) after preactivation
DOI: 10.1021/acs.iecr.7b01457
Article source: Figure 8 (bottom)
Adsorbate Nitrogen: InChIKey IJGRMHOSHXDMSA-UHFFFAOYSA-N
Kind: experiment
Temperature: 77 K
Tabular data in the source: 0
pressure (bar)	uptake (cm3(STP)/g)
0.000914	21.2868
0.000436	45.8584
0.000436	74.6665
0.001392	99.2381
-4.2e-05	122.962
0.000914	150.076
0.000436	173.8
0.000436	199.219
0.00187	226.333
0.000436	249.21
-4.2e-05	271.663
0.000436	297.082
0.001392	321.23
0.000914	345.801
0.000914	371.22
0.000914	393.25
0.00187	418.669
0.002349	444.512
0.003305	472.049
0.005217	495.773
0.010955	516.955
0.019561	532.207
0.03008	543.222
0.041555	553.389
0.036773	554.237
0.05303	561.862
0.081717	574.995
0.110883	585.163
0.132398	594.059
0.162998	603.38
0.192642	606.769
0.217504	610.158
0.244279	613.547
0.268186	616.089
0.296873	618.631
0.319345	618.631
0.366679	620.749
0.422142	622.02
0.471867	622.02
0.522548	622.867
0.573229	625.409
0.622954	625.409
0.674591	627.104
0.72575	627.528
0.775475	629.646
0.825678	629.646
0.875403	631.341
0.927997	634.73
0.972941	637.695
0.990153	639.813
1.00593	651.676
