Adsorption isotherm of Nitrogen on UiO-67-Pt-PSF(N) powder
DOI: 10.1021/acs.iecr.7b01457
Article source: Figure 8 (bottom)
Adsorbate Nitrogen: InChIKey IJGRMHOSHXDMSA-UHFFFAOYSA-N
Kind: experiment
Temperature: 77 K
Tabular data in the source: 0
pressure (bar)	uptake (cm3(STP)/g)
0.000914	22.9814
0.000914	46.2821
0.000436	68.7354
0.001392	93.7307
0.001392	117.031
0.001392	138.214
0.001392	158.125
0.001392	183.12
0.001392	205.574
0.00187	230.145
0.000914	255.564
0.000914	278.018
0.001392	300.895
0.001392	321.23
0.00187	344.531
0.001392	366.56
0.001392	389.014
0.00187	411.043
0.002349	437.31
0.004261	468.66
0.005217	497.891
0.008086	516.532
0.009999	528.818
0.012867	538.985
0.018127	550
0.029602	562.286
0.045858	570.759
0.061158	579.655
0.07837	586.434
0.09893	591.941
0.132876	597.449
0.153436	601.685
0.172561	601.685
0.184036	603.38
0.207942	605.074
0.26197	605.498
0.312173	609.311
0.38676	609.311
0.41497	610.158
0.46852	611.853
0.518723	611.853
0.569404	611.853
0.619607	612.7
0.670288	611.429
0.720969	611.853
0.770216	613.547
0.820897	613.971
0.872535	615.242
0.923694	616.513
0.969116	618.631
0.990153	619.478
1.0045	627.528
