Adsorption isotherm of Nitrogen on UiO-67-Pt-PSF(N) pellets
DOI: 10.1021/acs.iecr.7b01457
Article source: Figure 8 (bottom)
Adsorbate Nitrogen: InChIKey IJGRMHOSHXDMSA-UHFFFAOYSA-N
Kind: experiment
Temperature: 77 K
Tabular data in the source: 0
pressure (bar)	uptake (cm3(STP)/g)
0.000914	22.9814
0.000914	47.9767
0.000436	69.5827
0.000914	94.1543
0.000436	114.913
0.000436	137.366
0.00187	159.396
0.001392	183.544
0.000914	206.845
0.001392	230.569
0.00187	254.717
0.001392	277.594
0.00187	303.013
0.001392	328.856
0.002349	350.885
0.001392	380.117
0.001392	404.265
0.002349	429.684
0.003305	460.187
0.004261	472.049
0.005695	493.655
0.01478	515.261
0.026255	528.818
0.03773	538.138
0.046336	544.916
0.061636	557.202
0.077892	565.675
0.09893	569.911
0.132398	575.843
0.155348	578.384
0.174473	580.503
0.207942	583.045
0.259579	585.586
0.312173	586.434
0.38676	586.434
0.415448	586.434
0.467085	588.128
0.518245	588.976
0.569404	588.976
0.619129	588.976
0.670766	590.247
0.721447	591.518
0.772129	590.67
0.821375	592.365
0.871578	592.365
0.92226	594.059
0.970072	595.33
0.988241	598.296
1.00545	609.734
