Adsorption isotherm of Nitrogen on Busulfan@Zn(NO2-BDC)(dmbpy).5](C2H6O)(H2O)-a
DOI: 10.1021/acs.inorgchem.5b00335
Article source: Figure 4
Adsorbate Nitrogen: InChIKey IJGRMHOSHXDMSA-UHFFFAOYSA-N
Kind: experiment
Temperature: 77 K
Tabular data in the source: 0
pressure (bar)	uptake (cm3(STP)/g)
0	0
0.009529	6.75676
0.066703	8.10811
0.13023	8.10811
0.301752	8.10811
0.457392	8.10811
0.708323	9.45946
0.794083	9.45946
0.835375	9.45946
0.870315	9.45946
0.895726	10.8108
0.921136	10.8108
0.949723	13.5135
0.97831	14.8649
0.991015	16.2162
1.01007	18.9189
