Adsorption isotherm of Nitrogen on Zn(NO2-BDC)(dmbpy).5](C2H6O)(H2O)-a
DOI: 10.1021/acs.inorgchem.5b00335
Article source: Figure 4
Adsorbate Nitrogen: InChIKey IJGRMHOSHXDMSA-UHFFFAOYSA-N
Kind: experiment
Temperature: 77 K
Tabular data in the source: 0
pressure (bar)	uptake (cm3(STP)/g)
0	0
0.003176	180.707
0.006353	216.033
0.031763	225.543
0.053998	228.261
0.082585	230.978
0.101642	233.696
0.139759	236.413
0.161993	236.413
0.206462	239.13
0.254107	240.489
0.301752	240.489
0.330339	241.848
0.358926	241.848
0.406571	243.207
0.454216	243.207
0.479626	244.565
0.505037	244.565
0.555858	244.565
0.606679	244.565
0.635266	245.924
0.660678	245.924
0.689264	247.283
0.714675	247.283
0.759143	248.641
0.775025	245.924
0.816318	248.641
0.832199	248.641
0.863963	248.641
0.914783	250
0.94337	250
0.98784	251.359
1.01007	254.076
