Adsorption isotherm of Nitrogen on Zn(NO2-BDC)(dmbpy).5](C2H6O)(H2O)-a in water for 30 days
DOI: 10.1021/acs.inorgchem.5b00335
Article source: Figure 4
Adsorbate Nitrogen: InChIKey IJGRMHOSHXDMSA-UHFFFAOYSA-N
Kind: experiment
Temperature: 77 K
Tabular data in the source: 0
pressure (bar)	uptake (cm3(STP)/g)
0	0
0	81.0811
0.003166	131.077
0.006333	185.127
0.009499	197.285
0.012666	205.389
0.028498	212.124
0.047496	214.802
0.082327	217.458
0.104491	218.78
0.126656	220.101
0.142488	222.783
0.164653	222.753
0.180485	224.084
0.199484	225.41
0.250146	228.045
0.303975	227.973
0.332473	229.286
0.373636	229.231
0.402134	230.545
0.452796	231.829
0.481294	233.142
0.506625	233.108
0.557288	233.041
0.595284	234.341
0.60795	235.676
0.65228	235.617
0.68711	235.57
0.706109	236.896
0.750438	238.188
0.788435	239.489
0.807434	239.464
0.832765	240.781
0.861262	240.743
0.883427	242.065
0.908759	240.68
0.943589	241.985
0.962587	240.608
0.984752	241.93
1.00692	245.954
