Adsorption isotherm of Water on [Zn(NO2-BDC)(dmbpy).5](C2H6O)(H2O)
DOI: 10.1021/acs.inorgchem.5b00335
Article source: Figure 3
Adsorbate Water: InChIKey XLYOFNOQVPJJNP-UHFFFAOYSA-N
Kind: experiment
Temperature: 298 K
Tabular data in the source: 0
pressure (bar)	uptake (wt%)
0	0.038554
0.000949	0.271044
0.001582	0.464592
0.001647	0.079129
0.002216	0.272599
0.002594	0.697159
0.0031	0.929105
0.003165	0.543643
0.003796	1.12273
0.004492	1.2778
0.00538	1.04757
0.005948	1.58802
0.007216	1.3197
0.007466	2.01398
0.008542	2.16952
0.009363	2.78739
0.009368	1.70788
0.010375	3.13562
0.01095	1.9797
0.011005	4.0617
0.011572	4.94914
0.011583	2.1347
0.011885	5.75916
0.012262	6.49216
0.012278	2.52109
0.012467	2.90687
0.012577	6.95519
0.012765	7.57229
0.012908	3.48572
0.013159	4.06434
0.013206	8.11259
0.013331	8.45973
0.013347	4.48867
0.013457	8.84543
0.013535	4.913
0.013771	9.38557
0.013787	5.26029
0.013976	5.56896
0.014165	5.80052
0.014227	6.22469
0.014276	9.84884
0.014416	6.57191
0.014591	10.3504
0.014604	6.99623
0.014729	7.49759
0.01498	7.99911
0.015159	10.7367
0.015168	8.50054
0.015356	8.96342
0.015735	9.38798
0.015792	10.9688
0.01624	9.85125
0.016298	11.2007
0.017119	11.8186
0.017188	10.1994
0.018832	11.0111
0.020283	12.5165
0.021931	12.2872
0.024963	14.2186
0.02503	13.4861
0.028191	14.9551
0.028256	14.3768
0.031293	15.2288
