Adsorption isotherm of Nitrogen on h-Ag/ZnO/ZnFe2O4
DOI: 10.1016/j.apcatb.2015.11.035
Article source: Figure 5
Adsorbate Nitrogen: InChIKey IJGRMHOSHXDMSA-UHFFFAOYSA-N
Kind: experiment
Temperature: 77 K
Tabular data in the source: 0
pressure (bar)	uptake (cm3(STP)/g)
0.007397	6.5352
0.029992	7.4871
0.054351	8.1117
0.078466	8.5757
0.09866	8.9346
0.11929	9.3374
0.141024	9.6273
0.15985	10.0691
0.180825	10.4032
0.200846	10.7519
0.248874	11.7431
0.25159	11.7807
0.286527	12.3087
0.300844	12.672
0.353067	13.7473
0.402372	14.9058
0.454584	16.1036
0.505602	17.571
0.555727	19.0825
0.606937	20.8343
0.657133	22.5517
0.70733	24.5485
0.7586	26.4375
0.809485	28.5911
0.829325	29.43
0.859682	30.9703
0.885347	32.3633
0.910375	34.1605
0.935929	36.5807
0.959831	40.1847
0.983552	46.6657
0.993897	51.2542
1.00304	56.784
1.00705	61.2988
0.457807	18.3677
0.504021	21.1593
0.556132	23.1296
0.60721	25.1122
0.658531	27.0022
0.708809	28.8798
0.759056	30.8595
0.810083	33.302
0.836174	34.846
0.860918	36.742
0.885793	38.9815
0.909919	41.9422
0.935817	46.2066
0.957785	50.7162
0.977665	55.3139
0.991587	58.549
