Adsorption isotherm of Nitrogen on p-Ag/ZnO/ZnFe2O4
DOI: 10.1016/j.apcatb.2015.11.035
Article source: Figure 5
Adsorbate Nitrogen: InChIKey IJGRMHOSHXDMSA-UHFFFAOYSA-N
Kind: experiment
Temperature: 77 K
Tabular data in the source: 0
pressure (bar)	uptake (cm3(STP)/g)
0.007417	4.393
0.033093	4.929
0.056296	5.211
0.079733	5.533
0.099147	5.635
0.119594	5.853
0.141156	6.001
0.160245	6.31
0.180693	6.562
0.200147	6.499
0.251681	6.852
0.302719	7.551
0.353178	7.913
0.403395	8.649
0.455375	9.212
0.505774	9.847
0.556426	10.692
0.607656	11.472
0.658562	12.69
0.707563	14.019
0.709589	14.089
0.758894	16.255
0.759694	16.312
0.808908	17.986
0.830541	18.982
0.860989	21.526
0.886401	24.54
0.911226	28.627
0.936121	35.642
0.960024	47.321
0.985457	67.842
0.99339	79.012
1.00279	93.435
1.00792	105.996
0.810833	19.731
0.834888	22.592
0.860817	26.307
0.886016	31.883
0.910679	39.266
0.93755	51.949
0.950803	60.223
0.974321	77.991
0.988831	92.527
