Adsorption isotherm of Propene on CuBTC
DOI: 10.1021/Jp102212w
Adsorbate Propene: InChIKey QQONPFPTGQHPMA-UHFFFAOYSA-N
Temperature: 318 K
Tabular data in the source: 0
pressure (bar)	uptake (mmol/g)
0.00217391	0.559666
0.00434783	0.899149
0.00652174	0.990925
0.00869565	1.4772
0.0195652	1.79846
0.0347826	2.18402
0.0543478	2.45955
0.0717391	2.6433
0.0956522	2.83632
0.134783	3.01124
0.169565	3.13103
0.202174	3.20493
0.23913	3.26054
0.269565	3.30687
0.302174	3.35324
0.334783	3.38127
0.397826	3.45562
0.430435	3.47447
0.5	3.53058
0.534783	3.55864
0.565217	3.56828
0.632609	3.61518
0.667391	3.64323
0.7	3.66208
0.732609	3.67175
0.767391	3.69981
0.830435	3.73747
0.932609	3.79408
0.965217	3.81292
1	3.8318
1.03043	3.84144
1.09783	3.88835
1.16304	3.91687
1.2	3.93578
