Adsorption isotherm of Propene on CuBTC
DOI: 10.1021/Jp102212w
Adsorbate Propene: InChIKey QQONPFPTGQHPMA-UHFFFAOYSA-N
Temperature: 353 K
Tabular data in the source: 0
pressure (bar)	uptake (mmol/g)
0.0130435	0.624053
0.0173913	0.807605
0.0304348	1.00964
0.0434783	1.2025
0.0717391	1.52403
0.0956522	1.73541
0.132609	1.9745
0.167391	2.131
0.197826	2.26908
0.234783	2.37056
0.267391	2.48115
0.302174	2.56425
0.334783	2.62897
0.367391	2.69369
0.404348	2.76765
0.432609	2.81395
0.463043	2.85112
0.504348	2.87927
0.534783	2.94396
0.567391	2.97198
0.602174	3.01838
0.632609	3.04637
0.7	3.10245
0.734783	3.1305
0.767391	3.15852
0.8	3.1682
0.834783	3.20542
0.867391	3.23345
0.9	3.25229
0.932609	3.26197
0.965217	3.28999
0.997826	3.30884
1.03261	3.31854
1.06957	3.33746
1.11522	3.37485
1.13261	3.39346
1.16522	3.42149
1.22391	3.45908
