Adsorption isotherm of N-propane on CuBTC
DOI: 10.1021/Jp102212w
Adsorbate N-propane: InChIKey ATUOYWHBWRKTHZ-UHFFFAOYSA-N
Temperature: 318 K
Tabular data in the source: 0
pressure (bar)	uptake (mmol/g)
0.00217391	0.339483
0.00652174	0.458815
0.0108696	0.587322
0.0173913	0.688339
0.0217391	0.780149
0.0282609	0.89034
0.0326087	0.98215
0.0413043	1.07403
0.0434783	1.22085
0.0521739	1.3219
0.0586957	1.43209
0.0630435	1.49638
0.0695652	1.56987
0.113043	2.12099
0.136957	2.26815
0.171739	2.41547
0.204348	2.51689
0.236957	2.59078
0.269565	2.63715
0.3	2.67431
0.334783	2.72072
0.369565	2.74877
0.402174	2.78597
0.432609	2.80478
0.469565	2.84204
0.502174	2.86089
0.534783	2.87974
0.567391	2.89858
0.602174	2.91746
0.634783	2.92714
0.667391	2.94598
0.704348	2.9649
0.73913	2.9746
0.769565	2.98424
0.8	3.00306
0.834783	3.02194
0.871739	3.03168
0.9	3.03211
0.930435	3.0601
0.967391	3.06066
0.997826	3.0703
1.03478	3.08922
1.06739	3.09889
1.09783	3.10853
1.13478	3.12744
1.16957	3.12798
1.20217	3.14682
