Adsorption isotherm of Propene on CuBTC
DOI: 10.1021/Jp102212w
Adsorbate Propene: InChIKey QQONPFPTGQHPMA-UHFFFAOYSA-N
Temperature: 383 K
Tabular data in the source: 0
pressure (bar)	uptake (mmol/g)
0.0347826	0.349156
0.0673913	0.487269
0.0978261	0.588652
0.130435	0.671719
0.167391	0.736504
0.202174	0.801256
0.234783	0.847627
0.269565	0.89403
0.3	0.940367
0.334783	0.950073
0.367391	0.987269
0.402174	1.01532
0.434783	1.04335
0.467391	1.07137
0.5	1.09021
0.534783	1.10909
0.567391	1.12794
0.6	1.13761
0.634783	1.16567
0.669565	1.17538
0.7	1.18502
0.734783	1.2039
0.784783	1.21383
0.795652	1.23235
0.834783	1.24212
0.865217	1.23341
0.919565	1.26177
0.952174	1.27144
0.965217	1.28081
0.997826	1.29966
1.05217	1.30967
1.08478	1.33769
1.10217	1.32878
1.15	1.33869
1.18696	1.33925
1.2	1.3945
