Adsorption isotherm of N-propane on CuBTC
DOI: 10.1021/Jp102212w
Adsorbate N-propane: InChIKey ATUOYWHBWRKTHZ-UHFFFAOYSA-N
Temperature: 353 K
Tabular data in the source: 0
pressure (bar)	uptake (mmol/g)
0.015245	0.229474
0.0261343	0.348824
0.0348457	0.422285
0.045735	0.53246
0.0566243	0.63346
0.0740472	0.706988
0.100181	0.8815
0.132849	1.08358
0.169873	1.26735
0.202541	1.45109
0.235209	1.59813
0.270054	1.72684
0.302722	1.84635
0.33539	1.92917
0.372414	2.01202
0.402904	2.05813
0.43775	2.12261
0.463884	2.16868
0.505263	2.21487
0.533575	2.24261
0.570599	2.27959
0.601089	2.30735
0.638113	2.33515
0.668603	2.36291
0.703448	2.3907
0.736116	2.40012
0.768784	2.4279
0.80363	2.43734
0.838475	2.45595
0.868966	2.46536
0.901633	2.49313
0.938657	2.51176
0.969147	2.52117
1.00181	2.52142
1.03448	2.54002
1.07151	2.5403
1.10417	2.5589
1.13466	2.56831
1.17169	2.57777
1.20436	2.59636
