Adsorption isotherm of Methane on MOF-74-Ni
DOI: 10.1021/Ja4045289
Adsorbate Methane: InChIKey VNWKTOKETHGBQD-UHFFFAOYSA-N
Temperature: 125 K
Tabular data in the source: 0
pressure (bar)	uptake (cm3(STP)/g)
0.0251849	3.3708
0.58658	240.211
0.58658	275.169
0.58658	309.253
1.65717	333.724
2.8807	338.967
6.2454	346.833
14.0454	352.951
18.0219	354.699
23.6807	371.304
24.9042	398.396
