Adsorption isotherm of Methane on CuBTC
DOI: 10.1021/Ja4045289
Adsorbate Methane: InChIKey VNWKTOKETHGBQD-UHFFFAOYSA-N
Temperature: 323 K
Tabular data in the source: 0
pressure (bar)	uptake (cm3(STP)/g)
0.879713	1.62291
6.30694	56.6817
8.26677	73.2868
14.5985	109.993
19.875	133.589
26.9606	158.06
35.2522	180.783
47.6142	202.631
63.7451	223.606
