Adsorption isotherm of Methane on UTSA-20
DOI: 10.1021/Ja4045289
Adsorbate Methane: InChIKey VNWKTOKETHGBQD-UHFFFAOYSA-N
Temperature: 298 K
Tabular data in the source: 0
pressure (bar)	uptake (cm3(STP)/g)
0.280697	4.24475
2.57482	40.0767
6.39834	71.5389
13.4336	116.11
18.6336	141.455
30.2572	168.547
41.2689	187.774
49.0689	200.009
61.3042	219.236
