Adsorption isotherm of Methane on PCN-14
DOI: 10.1021/Ja4045289
Adsorbate Methane: InChIKey VNWKTOKETHGBQD-UHFFFAOYSA-N
Temperature: 298 K
Tabular data in the source: 0
pressure (bar)	uptake (cm3(STP)/g)
0.280697	0.748955
3.49246	49.6901
6.85717	85.5221
11.9042	124.85
16.0336	146.699
21.9983	166.799
34.2336	191.27
46.4689	211.371
61.4572	224.48
66.5042	230.598
