Adsorption isotherm of Methane on NU-125
DOI: 10.1021/Ja4045289
Adsorbate Methane: InChIKey VNWKTOKETHGBQD-UHFFFAOYSA-N
Temperature: 298 K
Tabular data in the source: 0
pressure (bar)	uptake (cm3(STP)/g)
1.96305	3.18357
5.17482	37.9231
8.53952	68.7298
13.4336	101.503
18.7866	129.032
24.5983	150.007
32.5513	174.915
41.8807	196.545
50.1395	210.965
61.4572	229.318
67.5748	235.873
