Adsorption isotherm of Methane on NU-125
DOI: 10.1021/Ja4045289
Adsorbate Methane: InChIKey VNWKTOKETHGBQD-UHFFFAOYSA-N
Temperature: 298 K
Tabular data in the source: 0
pressure (bar)	uptake (g/g)
0.892462	0.0121103
3.33952	0.0470683
8.99834	0.0977574
15.8807	0.147572
22.7631	0.179909
35.916	0.22448
51.8219	0.265556
69.1042	0.291774
