Adsorption isotherm of Methane on PCN-14
DOI: 10.1021/Ja4045289
Adsorbate Methane: InChIKey VNWKTOKETHGBQD-UHFFFAOYSA-N
Temperature: 298 K
Tabular data in the source: 0
pressure (bar)	uptake (cm3(STP)/g)
1.96305	3.18357
4.56305	44.4777
7.62187	79.2172
10.6807	109.368
14.0454	132.31
18.0219	148.696
24.2925	170.326
31.7866	186.058
41.4219	203.755
52.7395	217.52
62.6807	227.352
68.4925	231.284
