Adsorption isotherm of Methane on CuBTC
DOI: 10.1021/Ja4045289
Adsorbate Methane: InChIKey VNWKTOKETHGBQD-UHFFFAOYSA-N
Temperature: 298 K
Tabular data in the source: 0
pressure (bar)	uptake (cm3(STP)/g)
0.280697	0.524269
1.35129	26.8302
3.03364	53.136
5.4807	80.6654
7.16305	97.7949
11.4454	136.336
14.9631	160.195
19.5513	179.771
25.3631	203.018
31.3278	219.536
40.8101	236.665
53.0454	252.571
63.9042	264.807
