Adsorption isotherm of Methane on CuBTC
DOI: 10.1021/Ja4045289
Adsorbate Methane: InChIKey VNWKTOKETHGBQD-UHFFFAOYSA-N
Temperature: 125 K
Tabular data in the source: 0
pressure (bar)	uptake (cm3(STP)/g)
0.427444	23.4716
0.427444	231.472
0.5782	275.169
0.5782	304.883
1.48274	336.346
2.83954	350.329
4.64862	354.699
8.56828	361.69
12.6387	363.438
16.7091	366.934
22.5886	367.808
24.85	379.169
