Adsorption isotherm of Methane on PCN-14
DOI: 10.1021/Ja4045289
Adsorbate Methane: InChIKey VNWKTOKETHGBQD-UHFFFAOYSA-N
Temperature: 240 K
Tabular data in the source: 0
pressure (bar)	uptake (cm3(STP)/g)
0.280697	0.748955
2.72776	128.346
4.25717	165.925
6.55129	193.892
8.99834	213.993
12.0572	227.976
15.8807	241.959
22.6101	257.69
32.3983	271.673
49.3748	286.53
65.8925	297.018
