Adsorption isotherm of Methane on CuBTC
DOI: 10.1021/Ja4045289
Adsorbate Methane: InChIKey VNWKTOKETHGBQD-UHFFFAOYSA-N
Temperature: 298 K
Tabular data in the source: 0
pressure (bar)	uptake (cm3(STP)/g)
0.433639	0.0068666
5.32776	0.0636733
11.4454	0.108245
15.116	0.130094
20.0101	0.14932
25.6689	0.165051
31.6336	0.177287
36.2219	0.18253
46.6219	0.19564
64.3631	0.213119
69.4101	0.217488
