Adsorption isotherm of Methane on CuBTC
DOI: 10.1021/Ja4045289
Adsorbate Methane: InChIKey VNWKTOKETHGBQD-UHFFFAOYSA-N
Temperature: 270 K
Tabular data in the source: 0
pressure (bar)	uptake (cm3(STP)/g)
0.427444	9.48845
3.44257	78.5305
6.30694	136.211
8.26677	158.06
10.9804	187.774
13.3925	206.127
18.8197	227.102
26.3575	247.203
37.212	264.682
48.971	276.043
63.5943	284.783
