Adsorption isotherm of Methane on CuBTC
DOI: 10.1021/Ja4045289
Adsorbate Methane: InChIKey VNWKTOKETHGBQD-UHFFFAOYSA-N
Temperature: 298 K
Tabular data in the source: 0
pressure (bar)	uptake (cm3(STP)/g)
1.96305	3.18357
8.38658	94.9483
12.9748	136.898
16.7983	159.184
21.2336	182.125
26.8925	203.755
32.8572	220.797
41.8807	238.494
53.3513	253.57
64.516	265.368
68.9513	269.957
