Adsorption isotherm of Methane on UTSA-20
DOI: 10.1021/Ja4045289
Adsorbate Methane: InChIKey VNWKTOKETHGBQD-UHFFFAOYSA-N
Temperature: 240 K
Tabular data in the source: 0
pressure (bar)	uptake (cm3(STP)/g)
0.280697	4.24475
2.11599	114.362
3.03364	137.959
5.93952	173.791
8.0807	190.396
12.0572	213.993
17.716	229.724
26.5866	245.455
35.7631	258.564
40.3513	258.564
46.1631	265.556
53.0454	273.421
