Adsorption isotherm of Methane on PCN-14
DOI: 10.1021/Ja4045289
Adsorbate Methane: InChIKey VNWKTOKETHGBQD-UHFFFAOYSA-N
Temperature: 270 K
Tabular data in the source: 0
pressure (bar)	uptake (cm3(STP)/g)
0.280697	0.748955
3.6454	93.3876
6.85717	136.211
11.5983	174.665
21.9983	212.245
31.9395	229.724
40.8101	241.085
55.9513	257.69
65.8925	266.43
