Adsorption isotherm of Methane on PCN-14
DOI: 10.1021/Ja4045289
Adsorbate Methane: InChIKey VNWKTOKETHGBQD-UHFFFAOYSA-N
Temperature: 298 K
Tabular data in the source: 0
pressure (bar)	uptake (g/g)
0.433639	0.0068666
6.55129	0.0566817
14.3513	0.0951355
24.9042	0.123976
35.916	0.143203
47.8454	0.16243
57.3278	0.173791
68.4925	0.183404
