Adsorption isotherm of Methane on UTSA-20
DOI: 10.1021/Ja4045289
Adsorbate Methane: InChIKey VNWKTOKETHGBQD-UHFFFAOYSA-N
Temperature: 298 K
Tabular data in the source: 0
pressure (bar)	uptake (g/g)
0.127756	0.0051187
3.79834	0.0392027
8.0807	0.0662952
13.5866	0.0933876
18.6336	0.109993
25.3631	0.12922
32.3983	0.144077
42.6454	0.155438
54.2689	0.170295
69.2572	0.1869
