Adsorption isotherm of Methane on CuBTC
DOI: 10.1021/Ja4045289
Adsorbate Methane: InChIKey VNWKTOKETHGBQD-UHFFFAOYSA-N
Temperature: 200 K
Tabular data in the source: 0
pressure (bar)	uptake (cm3(STP)/g)
0.427444	23.4716
1.03047	199.136
1.63349	244.581
2.38728	269.051
4.19635	292.648
5.85467	308.379
8.26677	315.371
11.7342	323.236
19.272	330.228
26.2068	334.598
32.6893	334.598
35.4029	334.598
40.5286	334.598
