Adsorption isotherm of Methane on CuBTC
DOI: 10.1021/Ja4045289
Adsorbate Methane: InChIKey VNWKTOKETHGBQD-UHFFFAOYSA-N
Temperature: 298 K
Tabular data in the source: 0
pressure (bar)	uptake (cm3(STP)/g)
0.427444	9.48845
4.64862	57.5557
6.75921	84.6481
11.5834	126.598
15.5031	150.194
20.7795	177.287
27.7143	197.388
36.0059	215.741
47.3127	234.967
63.1421	251.572
