Adsorption isotherm of Methane on UTSA-20
DOI: 10.1021/Ja4045289
Adsorbate Methane: InChIKey VNWKTOKETHGBQD-UHFFFAOYSA-N
Temperature: 125 K
Tabular data in the source: 0
pressure (bar)	uptake (cm3(STP)/g)
0.280697	4.24475
0.280697	255.068
0.58658	289.152
1.96305	304.009
7.16305	313.623
19.0925	319.741
24.1395	324.11
24.4454	362.564
24.7513	399.27
