Adsorption isotherm of Methane on CuBTC
DOI: 10.1021/Ja4045289
Adsorbate Methane: InChIKey VNWKTOKETHGBQD-UHFFFAOYSA-N
Temperature: 298 K
Tabular data in the source: 0
pressure (bar)	uptake (cm3(STP)/g)
0.280697	0.524269
3.03364	35.3949
5.32776	58.6419
10.0689	84.9478
16.4925	114.924
27.1983	140.007
41.8807	161.418
63.7513	182.83
