Adsorption isotherm of Methane on CuBTC
DOI: 10.1021/Ja4045289
Adsorbate Methane: InChIKey VNWKTOKETHGBQD-UHFFFAOYSA-N
Temperature: 298 K
Tabular data in the source: 0
pressure (bar)	uptake (cm3(STP)/g)
0.280697	0.524269
2.57482	30.5007
5.93952	58.6419
9.30423	78.2184
11.7513	92.9007
20.316	119.207
31.7866	138.171
42.0336	154.077
56.563	166.924
63.7513	172.43
