Adsorption isotherm of Methane on MOF-74-Ni
DOI: 10.1021/Ja4045289
Adsorbate Methane: InChIKey VNWKTOKETHGBQD-UHFFFAOYSA-N
Temperature: 200 K
Tabular data in the source: 0
pressure (bar)	uptake (cm3(STP)/g)
0.0251849	3.3708
0.433639	189.522
1.35129	228.85
2.72776	258.564
4.41011	276.043
7.46893	290.9
11.2925	299.64
19.8572	309.253
29.1866	317.993
33.1631	318.867
