Adsorption isotherm of Methane on NU-111
DOI: 10.1021/Ja4045289
Adsorbate Methane: InChIKey VNWKTOKETHGBQD-UHFFFAOYSA-N
Temperature: 298 K
Tabular data in the source: 0
pressure (bar)	uptake (g/g)
0.433639	0.0068666
5.63364	0.0584296
13.4336	0.11611
20.9278	0.161556
28.2689	0.207001
39.1278	0.259438
52.7395	0.317119
64.0572	0.355572
69.4101	0.372178
