Adsorption isotherm of Methane on MOF-74-Ni
DOI: 10.1021/Ja4045289
Adsorbate Methane: InChIKey VNWKTOKETHGBQD-UHFFFAOYSA-N
Temperature: 323 K
Tabular data in the source: 0
pressure (bar)	uptake (cm3(STP)/g)
0.58658	3.3708
1.81011	33.0851
3.95129	69.791
8.0807	113.488
11.9042	141.455
18.0219	164.178
25.0572	181.657
34.8454	200.009
41.8807	209.623
49.5278	217.488
63.2925	233.22
