Adsorption isotherm of Methane on MOF-74-Ni
DOI: 10.1021/Ja4045289
Adsorbate Methane: InChIKey VNWKTOKETHGBQD-UHFFFAOYSA-N
Temperature: 298 K
Tabular data in the source: 0
pressure (bar)	uptake (g/g)
0.433639	0.0068666
3.79834	0.051438
8.38658	0.0890179
14.8101	0.122228
22.6101	0.147572
33.0101	0.165925
46.7748	0.18253
61.6101	0.194766
68.4925	0.198262
