Adsorption isotherm of Methane on UTSA-20
DOI: 10.1021/Ja4045289
Adsorbate Methane: InChIKey VNWKTOKETHGBQD-UHFFFAOYSA-N
Temperature: 298 K
Tabular data in the source: 0
pressure (bar)	uptake (cm3(STP)/g)
1.96305	3.18357
4.56305	39.234
7.77482	67.4189
12.2101	100.847
14.9631	115.923
20.7748	140.175
26.7395	161.15
32.2454	175.57
37.7513	187.368
48.7631	207.032
61.6101	226.696
67.2689	233.251
