Adsorption isotherm of Methane on PCN-14
DOI: 10.1021/Ja4045289
Adsorbate Methane: InChIKey VNWKTOKETHGBQD-UHFFFAOYSA-N
Temperature: 200 K
Tabular data in the source: 0
pressure (bar)	uptake (cm3(STP)/g)
0.280697	0.748955
0.892462	159.808
1.96305	224.48
3.18658	251.572
5.78658	275.169
9.61011	290.9
18.1748	303.135
24.2925	311.875
30.5631	316.245
39.4336	320.615
42.0336	321.488
