Adsorption isotherm of Methane on PCN-14
DOI: 10.1021/Ja4045289
Adsorbate Methane: InChIKey VNWKTOKETHGBQD-UHFFFAOYSA-N
Temperature: 125 K
Tabular data in the source: 0
pressure (bar)	uptake (cm3(STP)/g)
0.280697	0.748955
0.58658	223.606
0.892462	305.757
1.35129	324.11
2.72776	336.346
4.71599	341.589
8.99834	350.329
14.3513	357.32
24.9042	360.816
26.4336	376.547
