Adsorption isotherm of Methane on MOF-74-Ni
DOI: 10.1021/Ja4045289
Adsorbate Methane: InChIKey VNWKTOKETHGBQD-UHFFFAOYSA-N
Temperature: 270 K
Tabular data in the source: 0
pressure (bar)	uptake (cm3(STP)/g)
0.0251849	3.3708
1.81011	108.245
3.33952	148.446
5.93952	179.909
10.5278	208.749
19.7042	234.967
30.716	252.446
42.4925	262.06
55.3395	269.925
64.3631	274.295
