Adsorption isotherm of Methane on UTSA-20
DOI: 10.1021/Ja4045289
Adsorbate Methane: InChIKey VNWKTOKETHGBQD-UHFFFAOYSA-N
Temperature: 270 K
Tabular data in the source: 0
pressure (bar)	uptake (cm3(STP)/g)
0.280697	4.24475
2.57482	65.4212
4.71599	97.7574
7.77482	128.346
10.6807	151.068
17.716	186.026
29.9513	214.867
38.9748	229.724
52.4336	245.455
60.3866	253.32
63.1395	253.32
64.0572	256.816
