Adsorption isotherm of Methane on NU-111
DOI: 10.1021/Ja4045289
Adsorbate Methane: InChIKey VNWKTOKETHGBQD-UHFFFAOYSA-N
Temperature: 298 K
Tabular data in the source: 0
pressure (bar)	uptake (cm3(STP)/g)
1.96305	3.18357
7.31599	32.6794
11.7513	53.6542
19.3983	87.7382
30.716	125.1
40.6572	151.973
52.7395	182.125
62.5278	201.133
65.1278	207.688
68.7983	214.242
