Adsorption isotherm of Methane on MOF-74-Ni
DOI: 10.1021/Ja4045289
Adsorbate Methane: InChIKey VNWKTOKETHGBQD-UHFFFAOYSA-N
Temperature: 240 K
Tabular data in the source: 0
pressure (bar)	uptake (cm3(STP)/g)
0.0251849	3.3708
1.0454	137.085
1.96305	177.287
3.6454	206.127
6.70423	231.472
11.7513	251.572
16.3395	262.934
21.0807	272.547
31.6336	283.909
42.1866	288.278
55.1866	295.27
64.0572	296.144
