Adsorption isotherm of Methane on MOF-74-Ni
DOI: 10.1021/Ja4045289
Adsorbate Methane: InChIKey VNWKTOKETHGBQD-UHFFFAOYSA-N
Temperature: 298 K
Tabular data in the source: 0
pressure (bar)	uptake (g/g)
0.433639	0.0068666
3.33952	0.0479422
6.2454	0.0785305
10.0689	0.0977574
16.9513	0.114362
24.7513	0.127472
37.2925	0.136211
52.1278	0.144951
68.6454	0.150194
