Adsorption isotherm of Methane on CuBTC
DOI: 10.1021/Ja4045289
Adsorbate Methane: InChIKey VNWKTOKETHGBQD-UHFFFAOYSA-N
Temperature: 240 K
Tabular data in the source: 0
pressure (bar)	uptake (cm3(STP)/g)
0.427444	9.48845
1.78425	82.9002
2.68879	137.085
3.44257	158.06
4.0456	183.404
6.4577	223.606
10.5281	255.068
14.4478	271.673
20.0258	283.909
30.5787	298.766
40.3779	307.505
53.6444	311.875
63.5943	314.497
