Adsorption isotherm of Methane on CuBTC
DOI: 10.1021/Ja4045289
Adsorbate Methane: InChIKey VNWKTOKETHGBQD-UHFFFAOYSA-N
Temperature: 298 K
Tabular data in the source: 0
pressure (bar)	uptake (cm3(STP)/g)
0.280697	1.7478
1.96305	19.489
5.78658	46.4066
11.7513	70.2654
23.3748	95.9596
33.6219	106.971
42.1866	110.642
47.6925	115.536
60.3866	121.654
