Adsorption isotherm of Methane on MOF-74-Ni
DOI: 10.1021/Ja4045289
Adsorbate Methane: InChIKey VNWKTOKETHGBQD-UHFFFAOYSA-N
Temperature: 298 K
Tabular data in the source: 0
pressure (bar)	uptake (cm3(STP)/g)
0.0251849	3.3708
1.96305	61.0515
3.03364	89.0179
6.09246	128.346
9.30423	158.934
16.4925	188.648
23.6807	209.623
34.0807	225.354
45.3983	238.463
60.0807	248.951
64.8219	250.699
