Adsorption isotherm of Methane on CuBTC
DOI: 10.1021/Ja4045289
Adsorbate Methane: InChIKey VNWKTOKETHGBQD-UHFFFAOYSA-N
Temperature: 298 K
Tabular data in the source: 0
pressure (bar)	uptake (cm3(STP)/g)
0.280697	0.524269
2.11599	20.1007
6.55129	48.2419
10.6807	63.536
16.4925	80.6654
25.0572	97.7949
34.2336	110.03
45.7042	119.207
62.6807	128.995
