Adsorption isotherm of Methane on UTSA-20
DOI: 10.1021/Ja4045289
Adsorbate Methane: InChIKey VNWKTOKETHGBQD-UHFFFAOYSA-N
Temperature: 200 K
Tabular data in the source: 0
pressure (bar)	uptake (cm3(STP)/g)
0.280697	4.24475
0.892462	171.169
0.892462	186.9
1.35129	208.749
2.57482	227.976
4.56305	245.455
8.8454	259.438
14.3513	270.799
20.0101	277.791
29.7983	279.539
34.3866	279.539
