Adsorption isotherm of Methane on MOF-74-Ni
DOI: 10.1021/Ja4045289
Adsorbate Methane: InChIKey VNWKTOKETHGBQD-UHFFFAOYSA-N
Temperature: 298 K
Tabular data in the source: 0
pressure (bar)	uptake (cm3(STP)/g)
1.96305	3.18357
2.8807	31.3684
3.95129	64.1415
5.32776	97.5701
7.46893	128.377
10.8336	161.805
17.716	192.612
24.5983	212.276
35.3042	227.352
50.1395	242.427
68.7983	253.57
