Adsorption isotherm of Nitrogen on SiO2@Fe3O4
DOI: 10.1016/j.jssc.2014.06.017
Article source: Figure 5
Adsorbate Nitrogen: InChIKey IJGRMHOSHXDMSA-UHFFFAOYSA-N
Kind: experiment
Temperature: 77 K
Tabular data in the source: 0
pressure (bar)	uptake (cm3(STP)/g)
0	0
0.201188	4.4997
0.250273	12.1901
0.301786	8.6267
0.353299	5.0633
0.40483	9.0085
0.441622	5.39055
0.453897	9.1903
0.507872	9.39029
0.547128	9.53573
0.559394	9.58118
0.608463	9.76299
0.632988	6.0996
0.659993	13.7082
0.686971	10.0539
0.70906	13.89
0.738501	13.9991
0.763036	14.09
0.78757	14.1809
0.812104	14.2718
0.836647	18.117
0.86118	18.2079
0.890621	18.317
0.912702	18.3988
0.937253	25.9983
0.991228	26.1983
0.998588	26.2255
