Adsorption isotherm of Nitrogen on MZC-6
DOI: 10.1016/j.jssc.2014.06.017
Article source: Figure 5
Adsorbate Nitrogen: InChIKey IJGRMHOSHXDMSA-UHFFFAOYSA-N
Kind: experiment
Temperature: 77 K
Tabular data in the source: 0
pressure (bar)	uptake (cm3(STP)/g)
0	0
0.002447	153.934
0.004895	176.469
0.00979	195.258
0.02937	214.102
0.051397	240.463
0.088109	240.599
0.100346	248.153
0.127268	248.253
0.15419	248.353
0.161532	248.38
0.186007	252.225
0.203139	252.289
0.212929	252.325
0.232509	244.889
0.252088	256.224
0.286354	248.843
0.308381	256.433
0.335303	252.778
0.35733	260.368
0.389147	256.732
0.408727	260.559
0.440544	256.922
0.477255	260.813
0.487045	260.849
0.509072	260.931
0.538442	261.039
0.558022	264.866
0.592286	264.993
0.611866	268.82
0.660815	269.001
0.712212	272.946
0.761162	273.127
0.795426	277.009
0.817453	280.845
0.834585	280.908
0.844375	284.699
0.876192	288.571
0.890877	288.625
0.908009	296.197
0.912904	296.215
0.934931	318.822
0.937379	303.814
0.959406	322.667
0.98388	596.82
0.988775	623.118
0.991223	484.219
0.99367	536.788
0.998565	593.12
1.00836	638.207
