Adsorption isotherm of Nitrogen on MZC-5
DOI: 10.1016/j.jssc.2014.06.017
Article source: Figure 5
Adsorbate Nitrogen: InChIKey IJGRMHOSHXDMSA-UHFFFAOYSA-N
Kind: experiment
Temperature: 77 K
Tabular data in the source: 0
pressure (bar)	uptake (cm3(STP)/g)
0	0
0.002447	60.0773
0.004895	105.138
0.00979	116.419
0.02937	142.771
0.056292	150.379
0.083214	157.988
0.100346	158.051
0.122373	165.641
0.141953	161.959
0.151742	165.75
0.161532	165.786
0.183559	165.868
0.208034	165.959
0.256984	169.894
0.313276	170.103
0.35733	170.266
0.411174	170.465
0.455228	174.383
0.51152	182.1
0.558022	182.272
0.611866	182.472
0.660815	190.162
0.709764	190.343
0.761162	190.534
0.807663	198.214
0.817453	205.759
0.824796	202.032
0.832138	202.059
0.841928	202.096
0.851718	202.132
0.861508	202.168
0.873745	205.968
0.885982	206.013
0.900667	209.822
0.930036	221.193
0.934931	217.457
0.964301	232.583
0.969196	262.635
0.986328	258.945
0.991223	304.014
0.99367	281.497
0.998565	352.847
1.00346	330.339
1.00836	371.654
