Adsorption isotherm of Nitrogen on MZC-3
DOI: 10.1016/j.jssc.2014.06.017
Article source: Figure 5
Adsorbate Nitrogen: InChIKey IJGRMHOSHXDMSA-UHFFFAOYSA-N
Kind: experiment
Temperature: 77 K
Tabular data in the source: 0
pressure (bar)	uptake (cm3(STP)/g)
0	0
0.098162	11.6265
0.152136	11.8265
0.196298	11.9901
0.245367	12.1719
0.510351	20.6623
0.552051	17.0625
0.610941	21.035
0.633022	21.1168
0.660018	24.9711
0.684552	25.062
0.716446	25.1802
0.763078	32.8615
0.782705	32.9342
0.812154	36.7976
0.836688	36.8885
0.839141	36.8976
0.861222	36.9794
0.885765	40.8246
0.890722	63.3685
0.910324	52.1784
0.917751	82.24
0.942243	63.5594
0.947218	93.612
0.996294	97.5481
