Adsorption isotherm of Nitrogen on MZC-4
DOI: 10.1016/j.jssc.2014.06.017
Article source: Figure 5
Adsorbate Nitrogen: InChIKey IJGRMHOSHXDMSA-UHFFFAOYSA-N
Kind: experiment
Temperature: 77 K
Tabular data in the source: 0
pressure (bar)	uptake (cm3(STP)/g)
0	0
0.000167	75.0859
0.002546	41.3064
0.007536	78.8675
0.01735	78.9039
0.046816	90.2758
0.098346	94.221
0.135147	94.3574
0.162134	94.4574
0.211203	94.6392
0.252919	98.548
0.299534	98.7207
0.32653	102.575
0.355971	102.684
0.402586	102.857
0.429572	102.957
0.45656	103.057
0.510535	103.257
0.532616	103.339
0.559612	107.193
0.606226	107.366
0.613587	107.393
0.620939	103.666
0.662655	107.575
0.733804	107.838
0.748524	107.893
0.814766	108.138
0.834402	111.965
0.85403	112.038
0.885924	112.156
0.900644	112.211
0.915365	112.265
0.937446	112.347
0.954619	112.411
0.96198	112.438
0.971793	112.474
0.981607	112.511
0.991421	112.547
1.0037	116.347
1.0086	116.365
