Adsorption isotherm of Nitrogen on ZIF-8
DOI: 10.1016/j.jssc.2014.06.017
Article source: Figure 5
Adsorbate Nitrogen: InChIKey IJGRMHOSHXDMSA-UHFFFAOYSA-N
Kind: experiment
Temperature: 77 K
Tabular data in the source: 0
pressure (bar)	uptake (cm3(STP)/g)
0	0
0.000528	236.525
0.000662	296.594
0.005635	326.684
0.022902	368.173
0.049982	409.771
0.084338	413.907
0.101521	417.852
0.108881	417.934
0.123602	418.097
0.148145	422.125
0.165319	422.315
0.184964	430.042
0.204591	430.26
0.216858	430.397
0.253668	434.56
0.307653	438.915
0.351815	439.405
0.408261	447.541
0.454876	448.06
0.508852	448.66
0.560391	456.741
0.609469	461.041
0.661	465.368
0.712539	473.449
0.76407	477.776
0.798427	481.912
0.8156	482.103
0.837698	489.858
0.862249	497.639
0.889263	509.202
0.906471	524.41
0.913806	513.229
0.940835	532.301
0.940953	584.862
0.955623	562.499
0.970813	772.907
0.986313	1122.23
0.987886	728.046
0.992944	795.679
0.995482	833.25
0.996177	1144.86
0.998261	979.697
1.00601	1152.48
