Adsorption isotherm of Carbon Dioxide on Fine Activated Carbon
DOI: 10.1016/j.apenergy.2013.08.073
Article source: Figure 11a
Adsorbate Carbon Dioxide: InChIKey CURLTUGMZLYLDI-UHFFFAOYSA-N
Kind: experiment
Temperature: 298 K
Tabular data in the source: 0
pressure (bar)	uptake (mmol/g)
0.000336	2e-06
0.050484	0.27739
0.101437	0.38599
0.151356	0.45803
