Adsorption isotherm of Carbon Dioxide on Fine Activated Carbon
DOI: 10.1016/j.apenergy.2013.08.073
Article source: Figure 11c
Adsorbate Carbon Dioxide: InChIKey CURLTUGMZLYLDI-UHFFFAOYSA-N
Kind: experiment
Temperature: 298 K
Tabular data in the source: 0
pressure (bar)	uptake (mmol/g)
0.000438	0.00262
0.050683	0.30639
0.10239	0.42394
0.151395	0.55175
