Adsorption isotherm of Carbon Dioxide on Fine Activated Carbon
DOI: 10.1016/j.apenergy.2013.08.073
Article source: Figure 11a
Adsorbate Carbon Dioxide: InChIKey CURLTUGMZLYLDI-UHFFFAOYSA-N
Kind: experiment
Temperature: 298 K
Tabular data in the source: 0
pressure (bar)	uptake (mmol/g)
0.000336	2e-06
0.05073	0.22486
0.101326	0.29942
0.151721	0.37226
