Adsorption isotherm of Carbon Dioxide on CGUC-0.5-6
DOI: 10.1016/j.cej.2019.121931
Article source: Figure 4a
Adsorbate Carbon Dioxide: InChIKey CURLTUGMZLYLDI-UHFFFAOYSA-N
Kind: experiment
Temperature: 298 K
Tabular data in the source: 0
pressure (bar)	uptake (mmol/g)
0.00318	0.217
0.0107	0.42
0.028	0.715
0.0593	1.06
0.082	1.25
0.0982	1.37
0.119	1.49
0.159	1.7
0.18	1.8
0.202	1.89
0.246	2.07
0.306	2.24
0.36	2.4
0.398	2.5
0.5	2.71
0.602	2.89
0.701	3.05
0.801	3.18
0.898	3.3
0.984	3.4
