Adsorption isotherm of Nitrogen on CGUC-0.5-6
DOI: 10.1016/j.cej.2019.121931
Article source: Figure 4a
Adsorbate Nitrogen: InChIKey IJGRMHOSHXDMSA-UHFFFAOYSA-N
Kind: experiment
Temperature: 298 K
Tabular data in the source: 0
pressure (bar)	uptake (mmol/g)
0.118	0.0429
0.154	0.0572
0.223	0.0787
0.258	0.0929
0.327	0.107
0.363	0.122
0.432	0.143
0.467	0.157
0.537	0.172
0.572	0.179
0.642	0.201
0.677	0.208
0.747	0.222
0.781	0.23
0.799	0.237
0.872	0.237
0.887	0.244
0.922	0.252
0.991	0.266
1.03	0.273
