Adsorption isotherm of Methane on CGUC-0.5-6
DOI: 10.1016/j.cej.2019.121931
Article source: Figure 4a
Adsorbate Methane: InChIKey VNWKTOKETHGBQD-UHFFFAOYSA-N
Kind: experiment
Temperature: 298 K
Tabular data in the source: 0
pressure (bar)	uptake (mmol/g)
0.0865	0.155
0.118	0.19
0.154	0.232
0.188	0.281
0.223	0.317
0.259	0.366
0.293	0.401
0.328	0.437
0.361	0.472
0.397	0.5
0.432	0.521
0.468	0.564
0.503	0.585
0.537	0.613
0.572	0.634
0.607	0.663
0.643	0.684
0.677	0.719
0.712	0.74
0.747	0.755
0.781	0.776
0.817	0.797
0.853	0.818
0.886	0.833
0.922	0.854
0.992	0.889
1.03	0.911
