Adsorption isotherm of Nitrogen on HCMP-1
DOI: 10.1002/marc.201500159
Article source: Figure 3
Adsorbate Nitrogen: InChIKey IJGRMHOSHXDMSA-UHFFFAOYSA-N
Kind: experiment
Temperature: 77 K
Tabular data in the source: 0
pressure (bar)	uptake (cm3(STP)/g)
0.00036	19.595
0.00049	14.236
0.00099	23.241
0.00124	26.73
0.002	31.03
0.00224	42.371
0.00274	55.457
0.004	67.888
0.00947	78.044
0.02844	91.717
0.05633	100.278
0.08167	105.007
0.09658	107.838
0.11696	111.229
0.13619	114.189
0.13976	128.995
0.15711	117.003
0.17612	119.668
0.19563	134.885
0.19914	135.613
0.24548	127.77
0.24942	140.886
0.29796	133.301
0.29948	133.362
0.34852	150.331
0.35044	138.584
0.39783	153.912
0.39922	154.585
0.44839	158.81
0.44929	148.777
0.49897	153.219
0.49934	153.366
0.54876	167.132
0.54916	167.007
0.59812	163.199
0.59964	162.583
0.64885	175.647
0.649	175.649
0.69862	172.052
0.69907	172.102
0.75038	176.687
0.75236	183.669
0.79608	181.423
0.7981	181.669
0.81792	183.445
0.82361	189.302
0.84834	191.276
0.84906	190.986
0.87251	188.87
0.87322	189.284
0.89698	191.782
0.89879	195.07
0.92205	197.018
0.92549	194.494
0.93974	198.175
0.94915	195.774
0.98029	200.365
0.99262	203.181
