Adsorption isotherm of Nitrogen on COF-IM
DOI: 10.1021/acs.joc.0c02423
Article source: Figure 1c
Adsorbate Nitrogen: InChIKey IJGRMHOSHXDMSA-UHFFFAOYSA-N
Kind: experiment
Temperature: 77 K
Tabular data in the source: 0
pressure (bar)	uptake (cm3(STP)/g)
0.010273	134.528
0.049321	178.753
0.087865	207.631
0.110706	217.721
0.150678	241.049
0.192078	263.287
0.230622	321.427
0.263456	352.033
0.297718	355.803
0.333407	357.902
0.370524	360.58
0.39622	361.391
0.439047	363.472
0.470453	365.186
0.654609	379.043
0.688871	379.72
0.721705	380.93
0.753112	382.216
0.884448	391.07
0.921564	403.244
0.968674	452.826
1.00865	572.117
0.512073	376.839
0.547729	378.474
0.583386	376.839
0.617062	378.474
0.793366	383.379
0.832985	385.014
0.852794	385.014
0.012876	147.956
0.009349	103.055
0.045038	139.557
0.093576	174.107
0.120903	187.189
0.152106	204.083
0.18494	219.841
0.220629	249.149
0.253463	309.645
0.293435	322.022
0.327062	326.401
0.358469	330.066
0.403213	335.517
0.43462	338.409
0.47395	340.658
0.512138	342.608
0.543259	344.728
0.577521	346.967
0.614638	349.912
0.650327	351.797
0.681733	353.725
0.721705	355.332
0.758822	357.153
0.788801	359.927
0.827345	362.722
0.861607	365.828
0.898723	371.434
0.931557	379.249
0.967247	403.637
1.00008	483.164
0.010895	85.8311
