Adsorption isotherm of Nitrogen on COF-IM-SO3H
DOI: 10.1021/acs.joc.0c02423
Article source: Figure 1c/S34b
Adsorbate Nitrogen: InChIKey IJGRMHOSHXDMSA-UHFFFAOYSA-N
Kind: experiment
Temperature: 77 K
Tabular data in the source: 0
pressure (bar)	uptake (cm3(STP)/g)
0.055745	91.371
0.088085	101.027
0.151868	117.045
0.339117	161.444
0.370524	163.348
0.40193	164.192
0.433336	165.101
0.474373	168.205
0.505779	169.865
0.542	170.874
0.582803	170.867
0.621775	170.113
0.653182	171.358
0.684588	172.177
0.720122	173.239
0.752904	176.22
0.790501	175.827
0.814341	178.348
0.849187	181.958
0.88472	190.441
0.93013	211.258
0.971173	265.266
1.00766	345.71
0.01062	74.4777
0.104164	107.402
0.19083	128.974
0.227973	148.274
0.260989	159.628
0.296756	159.628
0.009984	44.9148
0.005585	9.5903
0.092148	80.1096
0.118558	87.591
0.149251	94.0121
0.17897	101.167
0.262266	136.584
0.293435	139.215
0.403358	148.057
0.434764	148.915
0.548969	154.806
0.577521	155.513
0.606072	155.513
0.690299	158.314
0.720277	161.074
0.757394	163.878
0.785946	165.999
0.898723	179.129
0.931082	189.418
0.967247	208.976
1.00008	279.634
0.22247	116.485
0.043636	65.3951
0.32702	142.598
0.365538	149.41
0.471463	151.68
0.50723	149.41
0.650298	156.222
0.826381	168.71
0.862148	173.252
