Adsorption isotherm of Nitrogen on Chitosan
DOI: 10.1021/acs.joc.0c02423
Article source: Figure S34b
Adsorbate Nitrogen: InChIKey IJGRMHOSHXDMSA-UHFFFAOYSA-N
Kind: experiment
Temperature: 77 K
Tabular data in the source: 0
pressure (bar)	uptake (cm3(STP)/g)
0.039072	1.40749
0.087032	1.68868
0.129663	1.68868
0.181176	1.61838
0.232689	1.96988
0.282426	1.74492
0.333939	2.04018
0.385452	1.74492
0.435189	2.08236
0.488478	1.74492
0.538215	1.91364
0.587951	2.08236
0.690977	2.08236
0.740714	2.08236
0.790451	2.08236
0.809102	2.04018
0.825977	1.74492
0.84374	2.41979
0.861503	2.25107
0.878082	1.68868
0.897029	2.08236
0.914792	2.08236
0.932555	1.82928
0.948542	2.25107
0.968081	1.40749
0.985845	2.25107
1.0045	2.88376
1.01604	2.25107
0.641915	1.92944
0.075048	0.982584
0.122071	1.42921
0.143701	3.21573
0.165331	3.21573
0.202949	3.21573
0.220818	3.21573
0.010157	1.87584
0.272543	3.21573
0.324268	2.32247
0.373171	2.7691
0.425836	3.21573
0.47568	2.7691
0.528346	2.7691
0.57819	3.21573
0.627093	2.32247
0.678818	3.21573
0.728662	0.982584
0.778506	2.7691
