Adsorption isotherm of Nitrogen on COF-IM-SO3H@chitosan
DOI: 10.1021/acs.joc.0c02423
Article source: Figure S34b
Adsorbate Nitrogen: InChIKey IJGRMHOSHXDMSA-UHFFFAOYSA-N
Kind: experiment
Temperature: 77 K
Tabular data in the source: 0
pressure (bar)	uptake (cm3(STP)/g)
0.1794	24.7467
0.222032	28.5556
0.337492	38.1035
0.381899	41.2861
0.430525	44.6475
0.538215	54.6301
0.577293	58.6179
0.693464	71.2564
0.739924	78.8299
0.788731	91.1308
0.840779	109.527
0.865056	122.603
0.889924	138.751
0.91124	156.74
0.946766	187.8
0.972603	202.488
0.995318	215.631
0.485092	48.6218
0.636227	64.8291
0.920619	162.073
1.00675	222.271
0.281955	33.9581
0.128654	20.9022
0.084641	16.0786
0.045142	8.57528
0.071045	17.9629
0.269992	36.8381
0.326834	40.4233
0.724727	65.2037
0.781569	71.0033
0.838411	78.8065
0.912253	99.1588
0.934332	114.87
0.964529	143.299
0.98686	177.114
0.994472	190.612
0.997095	201.337
1.00361	211.427
1.01249	221.583
0.010834	8.3609
0.031148	13.5061
0.093443	21.2238
0.119174	21.2238
0.139488	25.7258
0.166573	28.2984
0.203138	31.5141
0.376482	43.7339
0.425235	46.9496
0.47805	51.4517
0.528158	52.0948
0.578265	56.5968
0.628372	59.1694
0.677125	61.0989
0.850469	79.7501
0.88094	88.4326
