Adsorption isotherm of Nitrogen on Au-IRMOF-1
DOI: 10.1002/anie.201209903
Adsorbate Nitrogen: InChIKey IJGRMHOSHXDMSA-UHFFFAOYSA-N
Temperature: 77 K
Tabular data in the source: 0
pressure (bar)	uptake (mmol/g)
0.00229475	11.3342
0.00515504	58.815
0.00801532	91.9943
0.0108756	106.582
0.0208866	110.872
0.0523498	116.879
0.103835	121.455
0.202515	123.743
0.301195	126.032
0.444209	128.606
0.598664	130.608
0.700205	131.752
0.796024	133.182
0.846079	133.182
0.898994	134.899
0.949049	138.903
0.977652	156.637
0.983373	167.792
