Adsorption isotherm of Nitrogen on Au-IRMOF-1
DOI: 10.1002/anie.201209903
Adsorbate Nitrogen: InChIKey IJGRMHOSHXDMSA-UHFFFAOYSA-N
Temperature: 77 K
Tabular data in the source: 0
pressure (bar)	uptake (mmol/g)
0.015166	0.751171
0.0509196	0.751171
0.100975	1.0372
0.199654	1.89529
0.295474	2.18131
0.397014	2.75337
0.497124	2.75337
0.598664	2.75337
0.703065	3.89749
0.75169	3.32543
0.808895	4.18351
0.848939	4.75557
0.898994	5.61366
0.95048	9.61806
0.987663	9.90409
