Adsorption isotherm of Nitrogen on Au-IRMOF-1
DOI: 10.1002/anie.201209903
Adsorbate Nitrogen: InChIKey IJGRMHOSHXDMSA-UHFFFAOYSA-N
Temperature: 77 K
Tabular data in the source: 0
pressure (bar)	uptake (mmol/g)
0.00372489	12.1923
0.00372489	44.2275
0.00372489	95.7127
0.00658518	121.741
0.00944547	132.896
0.0266072	140.047
0.045199	144.338
0.095254	148.342
0.198224	152.06
0.345529	156.065
0.45279	157.495
0.55576	158.925
0.647289	159.783
0.804605	163.215
0.898994	165.79
0.95048	175.515
0.966211	192.104
0.986233	222.995
