Adsorption isotherm of Nitrogen on CuBTC
DOI: 10.1021/Ie502489q
Adsorbate Nitrogen: InChIKey IJGRMHOSHXDMSA-UHFFFAOYSA-N
Temperature: 77 K
Tabular data in the source: 0
pressure (bar)	uptake (cm3(STP)/g)
0.487363	465.285
0.540764	465.618
0.587279	467.539
0.638957	467.908
0.6803	468.492
0.731988	471.751
0.780221	472.192
0.80089	471.761
0.826736	474.113
0.852573	473.575
0.881859	474.41
0.888748	474.267
0.912863	473.765
0.940436	477.526
0.971495	492.775
