Adsorption isotherm of Nitrogen on MCC-6
DOI: 10.1021/Ie502489q
Adsorbate Nitrogen: InChIKey IJGRMHOSHXDMSA-UHFFFAOYSA-N
Temperature: 77 K
Tabular data in the source: 0
pressure (bar)	uptake (cm3(STP)/g)
0.012286	66.2181
0.0226255	67.4479
0.0415822	69.9433
0.0760408	72.1159
0.0967149	73.1305
0.120834	74.0733
0.139785	75.1237
0.15701	74.7651
0.174234	74.4064
0.198348	73.9042
0.208682	73.689
0.244864	75.8257
0.293097	76.2664
0.305144	73.1254
0.327545	75.549
0.33788	75.3338
0.391286	77.1119
0.434346	76.2152
0.489474	77.9573
0.535979	76.9889
0.58593	75.9487
0.634163	76.3894
0.682405	79.72
0.730634	78.7157
0.796096	80.2427
0.830545	79.5253
0.847789	84.9466
0.875358	87.2626
0.902941	93.9136
0.921923	103.634
0.946107	123.362
0.954769	137.632
0.97032	151.759
