Adsorption isotherm of Nitrogen on MCC-10
DOI: 10.1021/Ie502489q
Adsorbate Nitrogen: InChIKey IJGRMHOSHXDMSA-UHFFFAOYSA-N
Temperature: 77 K
Tabular data in the source: 0
pressure (bar)	uptake (cm3(STP)/g)
0.485024	286.143
0.538428	287.921
0.584944	289.842
0.633177	290.283
0.679672	286.424
0.731351	286.793
0.781301	285.753
0.807143	286.66
0.815759	287.926
0.832984	287.567
0.860542	286.993
0.884667	289.381
0.915675	290.18
0.951866	295.207
0.967393	302.109
