Adsorption isotherm of Nitrogen on MCC-10
DOI: 10.1021/Ie502489q
Adsorbate Nitrogen: InChIKey IJGRMHOSHXDMSA-UHFFFAOYSA-N
Temperature: 77 K
Tabular data in the source: 0
pressure (bar)	uptake (cm3(STP)/g)
0.014581	232.355
0.0266529	236.439
0.0473369	240.344
0.0783606	245.478
0.0955998	249.454
0.104217	250.72
0.121446	251.806
0.135221	250.074
0.147287	252.713
0.155905	253.979
0.174861	256.474
0.192086	256.116
0.211037	257.166
0.245491	257.894
0.292007	259.815
0.304063	259.564
0.328182	260.507
0.336795	260.328
0.398807	260.481
0.440161	263.955
0.490106	261.47
0.536621	263.392
0.588299	263.761
0.636527	262.756
0.68476	263.197
0.732998	265.083
0.779514	267.004
0.796744	268.09
0.824302	267.517
0.851871	269.833
0.877717	272.185
0.896679	276.125
0.92599	284.185
0.950129	290.908
0.969096	296.2
