Adsorption isotherm of Nitrogen on Fe3O4
DOI: 10.1021/Ie502489q
Adsorbate Nitrogen: InChIKey IJGRMHOSHXDMSA-UHFFFAOYSA-N
Temperature: 77 K
Tabular data in the source: 0
pressure (bar)	uptake (cm3(STP)/g)
0.0429232	3.37757
0.0892693	3.78859
0.139053	5.56801
0.188822	3.01249
0.235162	1.97854
0.288369	0.791418
0.334715	1.20244
0.38621	1.49859
0.425691	2.06279
0.485768	2.16746
0.523522	-0.119989
0.576733	0.13786
0.604194	-0.474851
0.626502	-2.41765
0.657411	1.22797
0.676281	-2.08322
0.703756	1.639
0.727775	-1.78707
0.748367	-3.69158
0.777554	-1.45263
0.803299	-2.02705
0.8239	-1.04161
0.846217	-0.0944596
0.873684	0.737806
0.89429	3.16822
0.956098	7.56953
