Adsorption isotherm of Nitrogen on SiO2@Fe3O4
DOI: 10.1021/Ie502489q
Adsorbate Nitrogen: InChIKey IJGRMHOSHXDMSA-UHFFFAOYSA-N
Temperature: 77 K
Tabular data in the source: 0
pressure (bar)	uptake (cm3(STP)/g)
0.394501	10.5709
0.437562	9.67421
0.489245	11.4881
0.528861	10.6632
0.582251	8.10625
0.60982	10.4223
0.637378	9.84843
0.654608	10.9347
0.683904	14.6599
0.709741	14.1219
0.735572	12.1389
0.761423	15.9358
0.785553	19.7686
0.811418	27.9005
0.83038	31.8409
0.859707	44.236
0.882153	59.6645
0.908049	76.4662
