Adsorption isotherm of Nitrogen on MCC-4
DOI: 10.1021/Ie502489q
Adsorbate Nitrogen: InChIKey IJGRMHOSHXDMSA-UHFFFAOYSA-N
Temperature: 77 K
Tabular data in the source: 0
pressure (bar)	uptake (cm3(STP)/g)
0.0122163	45.9884
0.0277132	44.2206
0.0466699	46.716
0.0776736	46.0704
0.0948979	45.7117
0.108687	48.3147
0.120749	49.5086
0.137964	46.26
0.150026	47.4539
0.175872	49.8058
0.196541	49.3754
0.201709	49.2678
0.241334	51.3328
0.29473	50.2208
0.301619	50.0774
0.348125	49.1089
0.389478	52.583
0.40153	50.887
0.442873	51.4711
0.484217	52.0553
0.537622	53.8333
0.580682	52.9366
0.635805	53.2338
0.682316	53.7103
0.732281	57.0051
0.780519	58.8907
0.801183	57.0153
0.830465	56.4056
0.852871	60.2742
0.899397	65.0857
0.926976	70.2918
0.947705	87.2011
0.956337	92.8017
0.971889	106.929
