Adsorption isotherm of Nitrogen on SiO2@Fe3O4
DOI: 10.1021/Ie502489q
Adsorbate Nitrogen: InChIKey IJGRMHOSHXDMSA-UHFFFAOYSA-N
Temperature: 77 K
Tabular data in the source: 0
pressure (bar)	uptake (cm3(STP)/g)
0.0566796	10.549
0.0927331	12.7956
0.142507	11.9072
0.187133	11.1107
0.236907	10.2222
0.283254	10.84
0.338177	9.85969
0.381091	10.5388
0.434303	11.0341
0.489232	11.4987
0.528709	10.7941
0.583627	8.36873
0.614527	9.26229
0.635138	13.2296
0.652292	10.0333
0.676321	9.60439
0.702081	13.4798
0.731259	12.959
0.74499	12.7139
0.777606	13.5769
0.801655	18.9279
0.829136	24.2178
0.848026	26.7708
0.866926	32.2138
0.901313	48.941
0.944326	78.5201
