Adsorption isotherm of Nitrogen on MCC-6
DOI: 10.1021/Ie502489q
Adsorbate Nitrogen: InChIKey IJGRMHOSHXDMSA-UHFFFAOYSA-N
Temperature: 77 K
Tabular data in the source: 0
pressure (bar)	uptake (cm3(STP)/g)
0.393003	75.631
0.442964	77.4808
0.491231	88.0364
0.534291	87.1397
0.587687	86.0277
0.63248	87.9851
0.680728	92.7607
0.730673	90.2756
0.782361	93.5345
0.803051	98.884
0.832342	101.164
0.854753	106.478
0.880639	120.39
0.903061	128.593
0.91687	136.976
0.942732	143.663
0.949646	150.745
