Adsorption isotherm of Nitrogen on Fe3O4
DOI: 10.1021/Ie502489q
Adsorbate Nitrogen: InChIKey IJGRMHOSHXDMSA-UHFFFAOYSA-N
Temperature: 77 K
Tabular data in the source: 0
pressure (bar)	uptake (cm3(STP)/g)
0.293518	0.541236
0.336436	2.66533
0.387933	3.19125
0.427404	1.04162
0.485765	1.445
0.528674	0.679098
0.578454	1.23565
0.604199	0.776112
0.623069	-2.45088
0.655694	1.30203
0.672868	3.88567
0.707191	1.82795
0.729503	1.42968
0.75697	2.3845
0.777566	2.01687
0.796441	0.234876
0.825624	1.15906
0.846231	3.68143
0.871976	3.22189
0.906309	4.05416
0.956113	11.8357
