Adsorption isotherm of Nitrogen on MCC-8
DOI: 10.1021/Ie502489q
Adsorbate Nitrogen: InChIKey IJGRMHOSHXDMSA-UHFFFAOYSA-N
Temperature: 77 K
Tabular data in the source: 0
pressure (bar)	uptake (cm3(STP)/g)
0.44139	120.866
0.487985	145.907
0.54139	147.685
0.584456	148.234
0.632699	151.564
0.684377	151.933
0.73607	156.637
0.779136	157.185
0.810154	160.875
0.815322	160.767
0.837723	163.191
0.868747	168.325
0.891158	173.639
0.918777	190.405
0.94296	210.132
0.953365	230.147
