Adsorption isotherm of Nitrogen on MCC-8
DOI: 10.1021/Ie502489q
Adsorbate Nitrogen: InChIKey IJGRMHOSHXDMSA-UHFFFAOYSA-N
Temperature: 77 K
Tabular data in the source: 0
pressure (bar)	uptake (cm3(STP)/g)
0.0123806	93.6728
0.0296148	96.2041
0.046864	103.07
0.0778777	105.315
0.095107	106.401
0.107164	106.15
0.117503	107.38
0.138172	106.949
0.15024	109.588
0.158857	110.854
0.177804	110.459
0.198478	111.474
0.244998	114.84
0.291519	118.207
0.301848	116.547
0.324245	117.525
0.343201	120.021
0.38799	120.533
0.401769	120.246
0.437951	122.383
0.487911	124.233
0.4948	124.089
0.536138	123.228
0.587826	126.487
0.634336	126.964
0.67913	128.921
0.68946	127.261
0.730813	130.735
0.779061	135.511
0.798007	135.116
0.829031	140.25
0.854882	144.047
0.879012	147.88
0.90315	154.603
0.929027	165.625
0.948023	179.68
0.956675	191.061
0.96361	203.922
0.967109	219.745
0.974085	244.166
