Adsorption isotherm of Nitrogen on MCC-4
DOI: 10.1021/Ie502489q
Adsorbate Nitrogen: InChIKey IJGRMHOSHXDMSA-UHFFFAOYSA-N
Temperature: 77 K
Tabular data in the source: 0
pressure (bar)	uptake (cm3(STP)/g)
0.735726	56.9334
0.785696	61.6731
0.802926	62.7594
0.82705	65.1472
0.852892	66.0542
0.88048	74.1502
0.895992	76.7173
0.920156	90.665
0.952927	102.988
0.970171	108.41
