Adsorption isotherm of Nitrogen on 30GOA-M
DOI: 10.1016/j.micromeso.2013.06.002
Adsorbate Nitrogen: InChIKey IJGRMHOSHXDMSA-UHFFFAOYSA-N
Temperature: 77 K
Tabular data in the source: 0
pressure (bar)	uptake (cm3(STP)/g)
0.00110812	30.0078
0.00206155	161.581
0.00301498	202.006
0.0135027	225.27
0.0573604	232.516
0.15175	236.33
0.230884	237.092
0.302392	237.092
0.378666	236.711
0.422524	235.186
0.474009	234.042
0.573165	232.135
0.672322	230.991
0.773385	229.846
0.867775	230.228
0.928794	233.66
0.970745	236.711
0.995534	240.906
