Adsorption isotherm of Nitrogen on 30GOB-M
DOI: 10.1016/j.micromeso.2013.06.002
Adsorbate Nitrogen: InChIKey IJGRMHOSHXDMSA-UHFFFAOYSA-N
Temperature: 77 K
Tabular data in the source: 0
pressure (bar)	uptake (cm3(STP)/g)
0.00110812	181.031
0.00396841	7.88825
0.00778213	213.066
0.0392453	221.838
0.076429	226.795
0.15175	231.372
0.227071	233.279
0.330994	235.567
0.400595	236.33
0.48545	236.33
0.620837	234.042
0.719993	233.66
0.82201	232.897
0.869682	232.516
0.926887	235.186
0.971699	242.05
0.99172	252.729
