Adsorption isotherm of Nitrogen on 30GO1-M
DOI: 10.1016/j.micromeso.2013.06.002
Adsorbate Nitrogen: InChIKey IJGRMHOSHXDMSA-UHFFFAOYSA-N
Temperature: 77 K
Tabular data in the source: 0
pressure (bar)	uptake (cm3(STP)/g)
0.00110812	8.65099
0.00110812	221.456
0.00206155	129.927
0.0115958	245.101
0.0468727	253.491
0.104078	259.212
0.205142	264.551
0.301438	267.221
0.400595	268.365
0.55219	270.653
0.6523	271.035
0.748596	271.416
0.853473	274.086
0.902098	277.137
0.953583	282.476
0.99172	288.196
