Adsorption isotherm of Nitrogen on 10GO1-M
DOI: 10.1016/j.micromeso.2013.06.002
Adsorbate Nitrogen: InChIKey IJGRMHOSHXDMSA-UHFFFAOYSA-N
Temperature: 77 K
Tabular data in the source: 0
pressure (bar)	uptake (cm3(STP)/g)
0.00206155	241.669
0.00396841	259.975
0.0125493	269.89
0.0316178	277.899
0.0516398	282.094
0.103125	286.289
0.179399	288.196
0.273789	291.247
0.373899	292.391
0.451126	292.773
0.526447	293.535
0.599861	292.773
0.703785	293.535
0.801035	292.773
0.878263	294.298
0.924981	295.442
0.964071	297.731
0.990767	300.782
