Adsorption isotherm of Nitrogen on GO1
DOI: 10.1016/j.micromeso.2013.06.002
Adsorbate Nitrogen: InChIKey IJGRMHOSHXDMSA-UHFFFAOYSA-N
Temperature: 77 K
Tabular data in the source: 0
pressure (bar)	uptake (cm3(STP)/g)
0.00206155	4.07453
0.0545001	6.36276
0.125054	8.65099
0.203235	8.65099
0.281416	10.1765
0.35197	10.5578
0.450173	11.3206
0.554097	11.3206
0.6523	12.4647
0.75241	11.702
0.853473	14.3716
0.905912	15.1343
0.954537	15.5157
0.99172	18.948
