Adsorption isotherm of Nitrogen on MOF
DOI: 10.1016/j.micromeso.2013.06.002
Adsorbate Nitrogen: InChIKey IJGRMHOSHXDMSA-UHFFFAOYSA-N
Temperature: 77 K
Tabular data in the source: 0
pressure (bar)	uptake (cm3(STP)/g)
0.00110812	280.569
0.0182698	301.544
0.0487796	308.79
0.105985	316.418
0.155564	319.85
0.229931	323.664
0.300485	326.333
0.375806	326.333
0.453033	328.24
0.527401	329.384
0.601768	329.766
0.679949	330.91
0.75241	331.673
0.828684	332.817
0.903052	336.249
0.993627	340.826
