Adsorption isotherm of Nitrogen on 10GOA-M
DOI: 10.1016/j.micromeso.2013.06.002
Adsorbate Nitrogen: InChIKey IJGRMHOSHXDMSA-UHFFFAOYSA-N
Temperature: 77 K
Tabular data in the source: 0
pressure (bar)	uptake (cm3(STP)/g)
0.000155	260.738
0.00206155	221.075
0.00587527	278.662
0.0211301	296.586
0.076429	306.121
0.126961	309.172
0.205142	312.985
0.278556	314.511
0.400595	316.418
0.505472	316.799
0.62179	316.418
0.719993	316.418
0.823917	316.036
0.906865	316.418
0.950723	318.325
0.974559	320.613
0.992674	323.282
