Adsorption isotherm of Nitrogen on 10GOB-M
DOI: 10.1016/j.micromeso.2013.06.002
Adsorbate Nitrogen: InChIKey IJGRMHOSHXDMSA-UHFFFAOYSA-N
Temperature: 77 K
Tabular data in the source: 0
pressure (bar)	uptake (cm3(STP)/g)
0.00110812	220.312
0.00206155	273.704
0.0144561	288.196
0.0592673	300.019
0.100265	304.595
0.155564	307.265
0.225164	309.934
0.301438	311.46
0.402502	312.223
0.523587	310.697
0.622744	310.697
0.714273	309.553
0.820103	309.553
0.872542	309.172
0.925934	309.934
0.972652	311.46
0.99172	316.036
