Adsorption isotherm of Carbon Dioxide on PCN-11
DOI: 10.1039/C0ee00700e
Adsorbate Carbon Dioxide: InChIKey CURLTUGMZLYLDI-UHFFFAOYSA-N
Temperature: 220 K
Tabular data in the source: 0
pressure (bar)	uptake (mmol/g)
0.0613497	0.0613497
0.122699	15.3176
0.184049	17.1107
0.245399	18.2377
0.306748	18.8525
0.429448	19.3648
0.490798	20.0307
0.613497	20.3893
0.797546	20.5943
0.920245	20.9016
1.10429	21.1578
1.28834	21.6189
1.84049	22.1311
2.33129	22.3873
2.88344	22.6434
3.37423	22.7459
3.61963	22.7971
