Adsorption isotherm of Carbon Dioxide on IRMOF-1
DOI: 10.1039/C0ee00700e
Adsorbate Carbon Dioxide: InChIKey CURLTUGMZLYLDI-UHFFFAOYSA-N
Temperature: 280 K
Tabular data in the source: 0
pressure (bar)	uptake (mmol/g)
1.41786	1.91457
1.91092	2.52988
2.58911	3.48724
3.08274	4.37652
4.06957	5.94961
5.3044	8.54953
7.22094	13.8191
9.81314	18.8132
13.5075	21.6815
19.1053	23.381
24.64	24.3273
28.3292	24.6613
30.2967	24.7938
31.5265	24.928
