Adsorption isotherm of Carbon Dioxide on PCN-11
DOI: 10.1039/C0ee00700e
Adsorbate Carbon Dioxide: InChIKey CURLTUGMZLYLDI-UHFFFAOYSA-N
Temperature: 310 K
Tabular data in the source: 0
pressure (bar)	uptake (mmol/g)
0.920245	3.17623
1.16564	3.9959
1.53374	4.96926
2.08589	5.99385
2.63804	7.17213
3.31288	8.35041
3.98773	9.42623
5.21472	11.0656
7.60736	12.9611
10.8589	14.6004
15.5215	15.8811
21.1656	16.8033
26.5031	17.5205
29.3252	17.8279
30.9816	17.9816
