Adsorption isotherm of Carbon Dioxide on CuBTC
DOI: 10.1039/C0ee00700e
Adsorbate Carbon Dioxide: InChIKey CURLTUGMZLYLDI-UHFFFAOYSA-N
Temperature: 300 K
Tabular data in the source: 0
pressure (bar)	uptake (mmol/g)
1.36402	6.1705
1.66207	7.1988
2.20204	8.32956
3.34359	10.3852
4.3078	11.5152
5.63616	12.5418
7.99433	13.6694
11.2025	14.487
13.2611	14.895
15.6844	15.0966
20.4092	15.6029
23.014	15.8556
24.4075	15.9561
