Adsorption isotherm of Carbon Dioxide on IRMOF-1
DOI: 10.1039/C0ee00700e
Adsorbate Carbon Dioxide: InChIKey CURLTUGMZLYLDI-UHFFFAOYSA-N
Temperature: 240 K
Tabular data in the source: 0
pressure (bar)	uptake (mmol/g)
0.24969	1.84874
0.373623	2.32791
0.559592	3.08091
0.868371	3.76514
1.05574	5.20307
1.30487	6.77784
1.61758	9.37987
1.74797	13.0097
1.88004	17.4615
2.1338	21.2965
2.69185	23.624
3.06351	24.993
3.98844	26.3608
5.28153	27.3852
7.4354	28.4762
8.66519	28.6104
9.77132	28.4023
