Adsorption isotherm of Carbon Dioxide on PCN-11
DOI: 10.1039/C0ee00700e
Adsorbate Carbon Dioxide: InChIKey CURLTUGMZLYLDI-UHFFFAOYSA-N
Temperature: 280 K
Tabular data in the source: 0
pressure (bar)	uptake (mmol/g)
0.429448	4.04713
0.552147	5.43033
0.797546	6.35246
0.981595	7.17213
1.16564	8.45287
1.53374	9.8873
1.96319	11.168
2.51534	12.6537
3.12883	13.9857
3.74233	15.0102
5.09202	16.0861
7.36196	17.2643
11.1043	18.2889
15.5215	18.8525
21.1656	19.3648
26.4417	19.7234
29.3252	19.8258
30.8589	19.9283
