Adsorption isotherm of Carbon Dioxide on PCN-11
DOI: 10.1039/C0ee00700e
Adsorbate Carbon Dioxide: InChIKey CURLTUGMZLYLDI-UHFFFAOYSA-N
Temperature: 300 K
Tabular data in the source: 0
pressure (bar)	uptake (mmol/g)
0.920245	4.40574
1.16564	5.27664
1.59509	6.35246
2.08589	7.53074
2.63804	8.81148
3.25153	10.1947
3.98773	11.3217
5.33742	12.8586
7.66871	14.6004
10.9202	15.9836
15.6442	16.957
21.3497	17.7254
26.5031	18.2889
29.2638	18.5451
30.7975	18.75
