Adsorption isotherm of Carbon Dioxide on PCN-11
DOI: 10.1039/C0ee00700e
Adsorbate Carbon Dioxide: InChIKey CURLTUGMZLYLDI-UHFFFAOYSA-N
Temperature: 260 K
Tabular data in the source: 0
pressure (bar)	uptake (mmol/g)
0.429448	7.06967
0.552147	8.60656
0.613497	9.375
0.797546	10.5533
0.920245	11.6803
1.10429	13.1148
1.34969	14.4467
1.77914	15.5738
2.26994	16.7008
2.94479	17.623
3.74233	18.2377
5.03067	18.9549
7.36196	19.7234
10.7975	20.2869
14.7853	20.6455
17.1166	20.7992
18.3436	20.7992
