Adsorption isotherm of Carbon Dioxide on ZIF-8
DOI: 10.1039/C0ee00700e
Adsorbate Carbon Dioxide: InChIKey CURLTUGMZLYLDI-UHFFFAOYSA-N
Temperature: 300 K
Tabular data in the source: 0
pressure (bar)	uptake (mmol/g)
1.08768	0.666859
1.38946	0.923543
1.87282	1.23136
2.41628	1.64195
3.14082	2.20655
3.8656	2.71971
5.01289	3.59223
7.49127	4.92543
10.4558	6.00059
14.7538	7.02203
20.5077	7.78377
26.0202	8.34016
29.1101	8.54062
30.7457	8.69214
