Adsorption isotherm of Carbon Dioxide on Mg-MOF-74
DOI: 10.1039/C0ee00700e
Adsorbate Carbon Dioxide: InChIKey CURLTUGMZLYLDI-UHFFFAOYSA-N
Temperature: 300 K
Tabular data in the source: 0
pressure (bar)	uptake (mmol/g)
0.214243	5.81239
0.393818	6.27504
0.513036	6.68636
0.633251	6.89192
0.813076	7.30313
0.99315	7.66291
1.29394	8.12535
1.77605	8.69037
2.31926	9.1524
2.98394	9.56278
3.5264	10.1791
4.97797	10.7939
7.0356	11.4077
9.94197	11.9685
13.8193	12.2705
19.5156	12.4151
25.0313	12.3028
28.4868	12.0911
30.3666	11.8821
31.458	11.7773
