Adsorption isotherm of Carbon Dioxide on PCN-11
DOI: 10.1039/C0ee00700e
Adsorbate Carbon Dioxide: InChIKey CURLTUGMZLYLDI-UHFFFAOYSA-N
Temperature: 240 K
Tabular data in the source: 0
pressure (bar)	uptake (mmol/g)
0.122699	9.63115
0.184049	6.09631
0.245399	10.3484
0.306748	11.1168
0.368098	12.7561
0.429448	13.7295
0.490798	14.498
0.613497	15.4201
0.797546	17.2643
1.04294	18.0328
1.34969	18.6988
1.90184	19.4672
2.26994	20.0307
3.00613	20.4918
3.74233	20.8504
5.09202	21.3115
7.42331	21.7725
8.95706	21.875
10.184	21.4139
11.5337	22.1311
