Adsorption isotherm of Carbon Dioxide on IRMOF-1
DOI: 10.1039/C0ee00700e
Adsorbate Carbon Dioxide: InChIKey CURLTUGMZLYLDI-UHFFFAOYSA-N
Temperature: 220 K
Tabular data in the source: 0
pressure (bar)	uptake (mmol/g)
0.128705	2.80793
0.252918	3.42408
0.440291	4.86201
0.504012	5.95775
0.568013	7.19048
0.632997	8.90266
0.637068	10.889
0.647454	15.9574
0.662893	23.4916
0.713841	18.3545
0.719034	20.8888
0.764509	13.0804
0.974619	25.6142
1.16227	27.1891
1.65632	28.2839
2.02685	29.105
2.58139	29.7201
2.88919	29.9249
3.07418	30.1985
3.50478	30.3345
