Adsorption isotherm of Carbon Dioxide on IRMOF-1
DOI: 10.1039/C0ee00700e
Adsorbate Carbon Dioxide: InChIKey CURLTUGMZLYLDI-UHFFFAOYSA-N
Temperature: 310 K
Tabular data in the source: 0
pressure (bar)	uptake (mmol/g)
1.35456	1.0243
1.84706	1.36565
2.40104	1.70685
3.07811	2.11626
4.18634	2.93565
5.78694	4.02788
8.25016	6.07705
11.3299	9.01523
15.9494	13.3198
21.1817	16.664
26.4111	18.6383
29.3022	19.4536
30.9011	19.724
