Adsorption isotherm of Carbon Dioxide on Zn-MOF-74
DOI: 10.1039/C0ee00700e
Adsorbate Carbon Dioxide: InChIKey CURLTUGMZLYLDI-UHFFFAOYSA-N
Temperature: 300 K
Tabular data in the source: 0
pressure (bar)	uptake (mmol/g)
0.46889	3.29138
0.527003	3.80568
0.645722	4.31988
0.704582	4.67986
1.06573	5.19365
1.60645	6.17008
2.27013	6.78623
2.87345	7.35104
3.59898	7.70988
4.80812	8.32509
7.04807	8.83565
10.0153	9.34497
14.1353	9.5951
19.8308	9.89398
25.3455	9.9874
28.6784	10.0846
30.4966	10.0815
31.466	10.1312
