Adsorption isotherm of Carbon Dioxide on PCN-16
DOI: 10.1039/C0ee00700e
Adsorbate Carbon Dioxide: InChIKey CURLTUGMZLYLDI-UHFFFAOYSA-N
Temperature: 300 K
Tabular data in the source: 0
pressure (bar)	uptake (mmol/g)
0.775165	2.62213
0.953743	3.29055
1.31289	4.21586
1.67179	5.19261
2.15066	6.42635
2.75099	7.60845
3.47178	8.94466
4.85701	10.7427
6.72733	12.4885
9.50875	13.8211
13.3818	14.9976
18.7718	15.8114
24.2843	16.3678
28.0399	16.7729
30.2205	17.0264
31.3104	17.2303
