Adsorption isotherm of Carbon Dioxide on PCN-11
DOI: 10.1039/C0ee00700e
Adsorbate Carbon Dioxide: InChIKey CURLTUGMZLYLDI-UHFFFAOYSA-N
Temperature: 300 K
Tabular data in the source: 0
pressure (bar)	uptake (mmol/g)
0.95075	3.90783
1.42912	5.24446
2.14542	7.50661
2.62329	8.94612
5.27127	12.7996
7.68706	14.5444
10.8927	15.8764
15.6757	16.897
21.1871	17.6591
26.4569	18.2674
29.1226	18.4686
30.7585	18.5687
