Adsorption isotherm of Carbon Dioxide on IRMOF-1
DOI: 10.1039/C0ee00700e
Adsorbate Carbon Dioxide: InChIKey CURLTUGMZLYLDI-UHFFFAOYSA-N
Temperature: 300 K
Tabular data in the source: 0
pressure (bar)	uptake (mmol/g)
1.32811	1.07797
1.87132	1.54
2.47539	1.95049
3.07896	2.46386
4.10503	3.33658
5.37154	4.62042
7.78308	7.23974
10.5528	10.9901
14.5304	15.6129
19.9081	18.9473
25.2941	20.5842
28.6238	21.3501
30.3192	21.6558
31.4092	21.8597
