Adsorption isotherm of Carbon Dioxide on IRMOF-1
DOI: 10.1039/C0ee00700e
Adsorbate Carbon Dioxide: InChIKey CURLTUGMZLYLDI-UHFFFAOYSA-N
Temperature: 300 K
Tabular data in the source: 0
pressure (bar)	uptake (mmol/g)
3.94129	3.34717
5.23479	4.57709
7.63779	7.24284
10.4119	11.0036
14.4787	15.5834
19.8956	19.0642
25.4932	20.6952
28.6915	21.4413
30.5976	21.6425
31.5818	21.9142
