Adsorption isotherm of Carbon Dioxide on IRMOF-1
DOI: 10.1039/C0ee00700e
Adsorbate Carbon Dioxide: InChIKey CURLTUGMZLYLDI-UHFFFAOYSA-N
Temperature: 260 K
Tabular data in the source: 0
pressure (bar)	uptake (mmol/g)
0.988234	2.25802
1.23554	2.94238
1.60635	3.90044
2.10068	5.13219
2.59599	6.84339
3.03039	8.8287
3.59236	13.074
4.46326	18.072
6.13193	22.3833
8.53339	24.2956
11.9173	25.6577
15.7303	26.4024
17.6365	26.6036
18.559	26.8069
