Adsorption isotherm of Methane on C55H6N39
DOI: 10.1016/j.polymer.2012.12.015
Adsorbate Methane: InChIKey VNWKTOKETHGBQD-UHFFFAOYSA-N
Temperature: 273 K
Tabular data in the source: 0
pressure (bar)	uptake (cm3(STP)/g)
0.0539748	0.375585
0.104001	0.375585
0.155544	0.804628
0.202538	0.661614
0.305623	0.661614
0.408707	0.661614
0.505728	0.804628
0.608813	0.661614
0.708866	0.804628
0.808919	0.804628
0.910487	1.09066
0.957482	1.09066
1.00599	1.23367
1.03783	1.09066
