Adsorption isotherm of Carbon Dioxide on C55H6N39
DOI: 10.1016/j.polymer.2012.12.015
Adsorbate Carbon Dioxide: InChIKey CURLTUGMZLYLDI-UHFFFAOYSA-N
Temperature: 273 K
Tabular data in the source: 0
pressure (bar)	uptake (cm3(STP)/g)
0.0505699	18.7515
0.108469	28.1901
0.15942	35.0069
0.212688	41.1246
0.31459	50.0389
0.414177	57.38
0.520711	64.3716
0.631877	69.9649
0.731464	74.859
0.835683	79.7532
0.944533	84.6473
0.9978	86.9195
1.03949	89.017
