Adsorption isotherm of Hydrogen on C55H6N39
DOI: 10.1016/j.polymer.2012.12.015
Adsorbate Hydrogen: InChIKey UFHFLCQGNIYNRP-UHFFFAOYSA-N
Temperature: 77 K
Tabular data in the source: 0
pressure (bar)	uptake (cm3(STP)/g)
0.0552018	61.8943
0.103837	78.2809
0.164052	88.7682
0.217319	95.9783
0.261323	101.55
0.367857	111.054
0.467444	117.936
0.57861	123.835
0.678197	128.751
0.787047	133.34
0.88895	136.945
0.939901	138.911
0.993168	140.878
1.03022	142.188
