Adsorption isotherm of Nitrogen on C55H6N39
DOI: 10.1016/j.polymer.2012.12.015
Adsorbate Nitrogen: InChIKey IJGRMHOSHXDMSA-UHFFFAOYSA-N
Temperature: 77 K
Tabular data in the source: 0
pressure (bar)	uptake (cm3(STP)/g)
0.00182509	20.7873
0.00400996	115.174
0.0149343	159.745
0.0564469	189.897
0.152581	218.737
0.248716	239.712
0.34922	261.997
0.451909	280.35
0.552413	300.014
0.646363	324.922
0.751237	353.762
0.797119	378.67
0.849556	407.51
0.897623	459.947
0.952245	584.485
