Adsorption isotherm of Nitrogen on C55H6N39
DOI: 10.1016/j.polymer.2012.12.015
Adsorbate Nitrogen: InChIKey IJGRMHOSHXDMSA-UHFFFAOYSA-N
Temperature: 273 K
Tabular data in the source: 0
pressure (bar)	uptake (cm3(STP)/g)
0.0585226	0.947643
0.114613	1.80573
0.163123	2.80683
0.214666	3.09286
0.311687	4.80903
0.419319	5.95314
0.517856	7.24027
0.627005	8.81343
0.678547	9.38549
0.780116	10.5296
0.886232	12.2458
0.942322	12.8178
0.990833	13.2469
1.03631	13.3899
