Adsorption isotherm of Carbon Dioxide on C55H6N39
DOI: 10.1016/j.polymer.2012.12.015
Adsorbate Carbon Dioxide: InChIKey CURLTUGMZLYLDI-UHFFFAOYSA-N
Temperature: 273 K
Tabular data in the source: 0
pressure (bar)	uptake (cm3(STP)/g)
0.0554907	18.6814
0.107033	27.9773
0.163123	34.556
0.214666	40.4196
0.26166	45.4251
0.372325	54.0059
0.472377	60.8706
0.570914	66.7342
0.680063	72.5978
0.784663	77.6033
0.839238	80.0346
0.8832	82.1798
0.939291	84.325
0.990833	86.7562
1.03631	89.0444
