Adsorption isotherm of Carbon Dioxide on alumina F200
DOI: 10.1007/s10450-017-9907-0
Article source: Figure 3
Adsorbate Carbon Dioxide: InChIKey CURLTUGMZLYLDI-UHFFFAOYSA-N
Kind: experiment
Temperature: 303 K
Tabular data in the source: 0
pressure (bar)	uptake (mmol/g)
0.1088	0.39379
0.39024	0.62644
0.4274	0.65386
0.44675	0.66867
0.47973	0.68646
0.53866	0.72017
0.59803	0.7524
0.65894	0.78574
0.71962	0.81686
0.90609	0.89206
0.98877	0.92984
1.03494	0.94689
1.05737	0.95837
