Adsorption isotherm of Carbon Dioxide on alumina F200
DOI: 10.1007/s10450-017-9907-0
Article source: Figure 3
Adsorbate Carbon Dioxide: InChIKey CURLTUGMZLYLDI-UHFFFAOYSA-N
Kind: experiment
Temperature: 273 K
Tabular data in the source: 0
pressure (bar)	uptake (mmol/g)
0.03688	0.44603
0.18813	0.78166
0.20594	0.80945
0.24243	0.85575
0.30048	0.93059
0.36644	1.00653
0.41789	1.05691
0.45219	1.08395
0.48187	1.11174
0.5408	1.16508
0.59928	1.20954
0.65931	1.25251
0.71956	1.29326
0.90514	1.40551
0.98628	1.45404
1.03575	1.48219
1.05752	1.49479
