Adsorption isotherm of Acetylene on 1.0-[Bmim][OAc]@MIL-101
DOI: 10.1002/aic.15561
Article source: Figure 6A
Adsorbate Acetylene: InChIKey HSFWRNGVRCDJHI-UHFFFAOYSA-N
Kind: experiment
Temperature: 298 K
Tabular data in the source: 0
pressure (bar)	uptake (mmol/g)
0.02417	0.151153
0.036131	0.23303
0.049088	0.293361
0.064039	0.362311
0.076996	0.414023
0.090452	0.465735
0.105901	0.519602
0.11836	0.562695
0.132813	0.603634
0.14577	0.655346
0.158728	0.694131
0.170688	0.73076
0.184144	0.780318
0.1976	0.808328
0.210557	0.844958
0.224511	0.883742
0.23697	0.913907
0.251423	0.952692
0.265377	0.99363
0.32817	1.13799
0.398439	1.30821
0.464721	1.44827
0.531999	1.58617
0.599278	1.71329
0.66556	1.8318
0.732838	1.94815
0.799619	2.06019
0.865901	2.16793
0.933179	2.2692
0.998963	2.37047
1.06724	2.46958
