Adsorption isotherm of Nitrogen on 1.0-[Bmim][OAc]@MIL-101
DOI: 10.1002/aic.15561
Article source: Figure 4 (I)
Adsorbate Nitrogen: InChIKey IJGRMHOSHXDMSA-UHFFFAOYSA-N
Kind: experiment
Temperature: 77 K
Tabular data in the source: 0
pressure (bar)	uptake (cm3(STP)/g)
0	2.30769
0	16.1538
0	30
0	43.8462
0	60
0	76.1538
0	92.3077
0	108.462
0.001512	124.615
0.001512	140.769
0.004537	156.923
0.007562	168.462
0.010586	182.308
0.049906	258.462
0.083177	288.462
0.122497	311.538
0.155768	332.308
0.193576	348.462
0.24197	355.385
0.28129	360
0.307	360
0.337246	362.308
0.369004	364.615
0.4053	366.923
0.441596	369.231
0.476379	369.231
0.511162	371.538
0.547457	373.846
0.582241	376.154
0.617024	376.154
0.651807	378.462
0.688103	380.769
0.724398	380.769
0.759181	383.077
0.795477	385.385
0.83026	387.692
0.865043	390
0.899826	394.615
0.936122	401.538
0.967881	408.462
1.00266	468.462
0.976954	422.308
0.940659	403.846
0.890753	392.308
0.84992	390
0.813625	387.692
0.780354	385.385
0.744058	385.385
0.707763	383.077
0.671467	380.769
0.636684	380.769
0.598876	376.154
0.565605	376.154
0.52931	373.846
0.494526	371.538
0.459743	371.538
0.423448	371.538
0.387152	366.923
0.353881	364.615
0.317586	362.308
0.28129	362.308
0.248019	357.692
0.211724	353.077
0.181478	348.462
0.154256	332.308
0.116448	311.538
0.086202	290.769
0.051419	260.769
