Adsorption isotherm of Ethene on 0.4-[Bmim][OAc]@MIL-101
DOI: 10.1002/aic.15561
Article source: Figure 6B
Adsorbate Ethene: InChIKey VGGSQFUCUMXWEO-UHFFFAOYSA-N
Kind: experiment
Temperature: 298 K
Tabular data in the source: 0
pressure (bar)	uptake (mmol/g)
0.015008	0.038889
0.026513	0.060494
0.03902	0.08858
0.053027	0.110185
0.066033	0.133951
0.08004	0.159877
0.093047	0.183642
0.106053	0.207407
0.11956	0.224691
0.134067	0.250617
0.147074	0.267901
0.16008	0.289506
0.174087	0.302469
0.187094	0.324074
0.2006	0.34784
0.213607	0.362963
0.227114	0.378086
0.23962	0.397531
0.253127	0.421296
0.266133	0.43642
0.331666	0.516358
0.3997	0.596296
0.466733	0.676235
0.534767	0.747531
0.6003	0.816667
0.666833	0.883642
0.733867	0.950617
0.8004	1.01327
0.867434	1.07593
0.933467	1.13858
1.001	1.19907
1.06753	1.25525
