Adsorption isotherm of Nitrogen on 1.5-[Bmim][OAc]@MIL-101
DOI: 10.1002/aic.15561
Article source: Figure 4 (I)
Adsorbate Nitrogen: InChIKey IJGRMHOSHXDMSA-UHFFFAOYSA-N
Kind: experiment
Temperature: 77 K
Tabular data in the source: 0
pressure (bar)	uptake (cm3(STP)/g)
0	2.30769
0	20.7692
0	39.2308
0	57.6923
0.001512	76.1538
0.001512	94.6154
0.004537	110.769
0.010586	126.923
0.052931	170.769
0.093763	189.231
0.122497	196.154
0.160305	203.077
0.196601	205.385
0.232896	207.692
0.264655	210
0.299438	212.308
0.334221	214.615
0.370517	214.615
0.4053	214.615
0.440083	216.923
0.476379	216.923
0.511162	219.231
0.545945	221.538
0.582241	221.538
0.617024	221.538
0.653319	223.846
0.688103	223.846
0.722886	226.154
0.759181	226.154
0.793965	228.462
0.83026	230.769
0.865043	233.077
0.901339	235.385
0.93461	240
0.969393	249.231
1.00266	297.692
0.978467	260.769
0.933097	240
0.886216	235.385
0.848408	233.077
0.812112	230.769
0.777329	228.462
0.741034	226.154
0.704738	226.154
0.669955	226.154
0.635172	223.846
0.598876	223.846
0.564093	223.846
0.527797	221.538
0.493014	221.538
0.458231	221.538
0.421935	219.231
0.38564	216.923
0.350857	214.615
0.316074	214.615
0.279778	214.615
0.244995	212.308
0.210212	210
0.175428	207.692
0.140645	203.077
0.111911	196.154
0.089226	191.538
0.049906	173.077
