Adsorption isotherm of Acetylene on 0.4-[Bmim][OAc]@MIL-101
DOI: 10.1002/aic.15561
Article source: Figure 6A
Adsorbate Acetylene: InChIKey HSFWRNGVRCDJHI-UHFFFAOYSA-N
Kind: experiment
Temperature: 298 K
Tabular data in the source: 0
pressure (bar)	uptake (mmol/g)
0.037626	0.293361
0.051082	0.353692
0.065036	0.424796
0.078492	0.487282
0.091947	0.538994
0.103908	0.59717
0.117862	0.653192
0.130819	0.702749
0.144773	0.750152
0.158229	0.793246
0.171187	0.836339
0.185141	0.875123
0.197101	0.920371
0.211055	0.957001
0.224013	0.99794
0.237967	1.03672
0.251921	1.07335
0.265377	1.10352
0.328668	1.26512
0.398937	1.42241
0.466216	1.56677
0.532498	1.69821
0.598281	1.82534
0.666556	1.95031
0.733835	2.07312
0.800615	2.18516
0.866897	2.30152
0.934176	2.40925
1.00096	2.5213
1.06774	2.62256
