Adsorption isotherm of Ethene on 1.0-[Bmim][OAc]@MIL-101
DOI: 10.1002/aic.15561
Article source: Figure 6B
Adsorbate Ethene: InChIKey VGGSQFUCUMXWEO-UHFFFAOYSA-N
Kind: experiment
Temperature: 298 K
Tabular data in the source: 0
pressure (bar)	uptake (mmol/g)
0.004002	0.015123
0.016508	0.034568
0.028014	0.049691
0.041021	0.062654
0.053527	0.073457
0.067034	0.084259
0.08004	0.099383
0.092546	0.108025
0.106053	0.123148
0.12006	0.133951
0.132566	0.151235
0.146073	0.168519
0.15958	0.181481
0.173087	0.196605
0.186593	0.209568
0.2001	0.224691
0.213107	0.237654
0.226113	0.252778
0.24012	0.270062
0.253127	0.283025
0.265633	0.295988
0.331166	0.365123
0.3992	0.43642
0.467234	0.499074
0.533767	0.561728
0.5998	0.620062
0.667334	0.684877
0.732866	0.747531
0.7999	0.799383
0.867434	0.857716
0.932966	0.916049
1.0005	0.965741
1.06703	1.01975
