Adsorption isotherm of Ethene on Cr-MIL(101)
DOI: 10.1002/aic.15561
Article source: Figure 6B
Adsorbate Ethene: InChIKey VGGSQFUCUMXWEO-UHFFFAOYSA-N
Kind: experiment
Temperature: 298 K
Tabular data in the source: 0
pressure (bar)	uptake (mmol/g)
0.012006	0.054012
0.025513	0.110185
0.04002	0.155556
0.053027	0.194444
0.066033	0.235494
0.07904	0.270062
0.093547	0.311111
0.105553	0.345679
0.12006	0.380247
0.132566	0.412654
0.146073	0.447222
0.16058	0.47963
0.173087	0.507716
0.186093	0.535802
0.2001	0.57037
0.213107	0.594136
0.226113	0.624383
0.24012	0.643827
0.252626	0.676235
0.266133	0.704321
0.330165	0.814506
0.3997	0.926852
0.467234	1.0284
0.533267	1.12778
0.5998	1.22068
0.667334	1.30926
0.733367	1.39352
0.7999	1.47778
0.866433	1.55988
0.933467	1.64198
1.0005	1.71759
1.06753	1.79105
