Adsorption isotherm of Ethene on 2.1-[Bmim][OAc]@MIL-101
DOI: 10.1002/aic.15561
Article source: Figure 6B
Adsorbate Ethene: InChIKey VGGSQFUCUMXWEO-UHFFFAOYSA-N
Kind: experiment
Temperature: 298 K
Tabular data in the source: 0
pressure (bar)	uptake (mmol/g)
0.007004	0.008642
0.015008	0.012963
0.025013	0.021605
0.03902	0.019444
0.052526	0.019444
0.066533	0.025926
0.08004	0.028086
0.092046	0.025926
0.105553	0.028086
0.12006	0.030247
0.133067	0.030247
0.146573	0.032407
0.15908	0.034568
0.173087	0.036728
0.187094	0.036728
0.2001	0.038889
0.213107	0.04321
0.227614	0.04321
0.24062	0.04321
0.252126	0.047531
0.266633	0.047531
0.332666	0.056173
0.3992	0.064815
0.466233	0.073457
0.533267	0.075617
0.6003	0.082099
0.665333	0.08642
0.733367	0.090741
0.8004	0.092901
0.866433	0.097222
0.933467	0.095062
1	0.092901
1.06603	0.092901
