Adsorption isotherm of Acetylene on 1.5-[Bmim][OAc]@MIL-101
DOI: 10.1002/aic.15561
Article source: Figure 6C
Adsorbate Acetylene: InChIKey HSFWRNGVRCDJHI-UHFFFAOYSA-N
Kind: experiment
Temperature: 273 K
Tabular data in the source: 0
pressure (bar)	uptake (mmol/g)
0.008996	0.248304
0.013493	0.328192
0.029485	0.550586
0.038981	0.658544
0.052474	0.781616
0.066467	0.893893
0.07996	0.984577
0.093453	1.06447
0.106947	1.14004
0.12094	1.21129
0.133433	1.27606
0.146427	1.3322
0.16042	1.3905
0.174413	1.4488
0.186907	1.49414
0.2004	1.54164
0.214393	1.58698
0.226887	1.63449
0.24038	1.67551
0.253373	1.71653
0.267366	1.75756
0.327836	1.91734
0.3998	2.08143
0.466267	2.2153
0.532734	2.33621
0.5992	2.44633
0.665667	2.54997
0.733633	2.64713
0.7991	2.73566
0.866067	2.82634
0.932534	2.90407
0.999	2.9818
1.06547	3.05737
