Adsorption isotherm of Nitrogen on Cr-MIL(101)
DOI: 10.1002/aic.15561
Article source: Figure 4 (I)
Adsorbate Nitrogen: InChIKey IJGRMHOSHXDMSA-UHFFFAOYSA-N
Kind: experiment
Temperature: 77 K
Tabular data in the source: 0
pressure (bar)	uptake (cm3(STP)/g)
0	4.61539
0	20.7692
0	34.6154
0	48.4615
0	62.3077
0	76.1538
0	94.6154
0	108.462
0	124.615
0	143.077
0	166.154
0.001512	186.923
0.001512	205.385
0.001512	223.846
0.001512	244.615
0.001512	265.385
0.001512	283.846
0.003025	302.308
0.003025	320.769
0.004537	336.923
0.006049	353.077
0.007562	371.538
0.010586	383.077
0.08469	611.538
0.120985	699.231
0.152744	777.692
0.205675	823.846
0.223822	870
0.263143	920.769
0.329684	934.615
0.384128	941.538
0.4053	943.846
0.440083	948.462
0.474866	953.077
0.511162	955.385
0.547457	960
0.582241	962.308
0.617024	966.923
0.653319	969.231
0.689615	971.538
0.722886	976.154
0.759181	978.462
0.795477	980.769
0.83026	985.385
0.865043	990
0.899826	994.615
0.93461	1003.85
0.967881	1017.69
1.00266	1144.62
0.978467	1038.46
0.937634	1010.77
0.890753	999.231
0.84992	994.615
0.813625	987.692
0.777329	985.385
0.742546	980.769
0.707763	976.154
0.671467	976.154
0.635172	971.538
0.600388	969.231
0.565605	966.923
0.530822	962.308
0.496039	957.692
0.459743	953.077
0.42496	948.462
0.388665	946.154
0.353881	939.231
0.319098	934.615
0.284315	927.692
0.249532	920.769
0.228359	895.385
0.184502	810
0.157281	782.308
0.12401	708.462
0.087714	618.462
0.051419	535.385
