Adsorption isotherm of Nitrogen on 0.4-[Bmim][OAc]@MIL-101
DOI: 10.1002/aic.15561
Article source: Figure 4 (I)
Adsorbate Nitrogen: InChIKey IJGRMHOSHXDMSA-UHFFFAOYSA-N
Kind: experiment
Temperature: 77 K
Tabular data in the source: 0
pressure (bar)	uptake (cm3(STP)/g)
0	2.30769
0	16.1538
0	32.3077
0	50.7692
0	66.9231
0	85.3846
0	103.846
0	122.308
0	138.462
0	156.923
0	170.769
0	184.615
0.001512	200.769
0.003025	219.231
0.006049	237.692
0.010586	258.462
0.083177	422.308
0.11796	484.615
0.164842	523.846
0.196601	546.923
0.231384	602.308
0.269192	611.538
0.317586	620.769
0.340271	620.769
0.369004	623.077
0.4053	627.692
0.438571	630
0.476379	634.615
0.50965	636.923
0.545945	639.231
0.580728	639.231
0.617024	643.846
0.653319	643.846
0.688103	646.154
0.724398	648.462
0.759181	650.769
0.795477	653.077
0.83026	657.692
0.865043	660
0.899826	664.615
0.93461	671.538
0.969393	683.077
1.00418	738.462
0.978467	694.615
0.931585	671.538
0.887728	664.615
0.84992	660
0.813625	657.692
0.778841	653.077
0.742546	650.769
0.707763	650.769
0.671467	648.462
0.635172	646.154
0.600388	643.846
0.565605	641.538
0.52931	639.231
0.494526	636.923
0.459743	634.615
0.423448	630
0.388665	627.692
0.353881	625.385
0.317586	623.077
0.282803	616.154
0.248019	611.538
0.22231	593.077
0.184502	537.692
0.151231	516.923
0.127034	498.462
0.089226	436.154
0.049906	369.231
