Adsorption isotherm of Ethene on 1.5-[Bmim][OAc]@MIL-101
DOI: 10.1002/aic.15561
Article source: Figure 6B
Adsorbate Ethene: InChIKey VGGSQFUCUMXWEO-UHFFFAOYSA-N
Kind: experiment
Temperature: 298 K
Tabular data in the source: 0
pressure (bar)	uptake (mmol/g)
0.010005	0.021605
0.025013	0.025926
0.04002	0.034568
0.053027	0.04321
0.067534	0.049691
0.08054	0.056173
0.093547	0.077778
0.105553	0.084259
0.11906	0.08858
0.132066	0.103704
0.146573	0.116667
0.15908	0.120988
0.172586	0.13179
0.186093	0.138272
0.2001	0.153395
0.212106	0.157716
0.224612	0.170679
0.23962	0.17716
0.253127	0.187963
0.265133	0.192284
0.332166	0.237654
0.4002	0.276543
0.465733	0.319753
0.533267	0.35216
0.598799	0.388889
0.666333	0.421296
0.732866	0.451543
0.7994	0.47963
0.865433	0.509877
0.932966	0.531481
0.9995	0.563889
1.06553	0.583333
