Adsorption isotherm of Acetylene on 2.1-[Bmim][OAc]@MIL-101
DOI: 10.1002/aic.15561
Article source: Figure 6A
Adsorbate Acetylene: InChIKey HSFWRNGVRCDJHI-UHFFFAOYSA-N
Kind: experiment
Temperature: 298 K
Tabular data in the source: 0
pressure (bar)	uptake (mmol/g)
0.003738	0.030491
0.014203	0.054192
0.025167	0.095131
0.037626	0.120987
0.050583	0.146843
0.064537	0.177009
0.077993	0.202865
0.090951	0.224412
0.105901	0.241649
0.117862	0.261041
0.131318	0.284742
0.144275	0.299825
0.157731	0.314908
0.170688	0.327836
0.185639	0.349383
0.198098	0.362311
0.211554	0.379548
0.225009	0.390322
0.238964	0.405404
0.251921	0.416178
0.265377	0.43126
0.330163	0.485127
0.397442	0.53253
0.466216	0.573469
0.532498	0.616562
0.598779	0.648882
0.666058	0.685512
0.732838	0.722141
0.799619	0.754462
0.865901	0.784627
0.933179	0.814792
0.999959	0.838494
1.06674	0.86435
