Adsorption isotherm of Acetylene on 1.5-[Bmim][OAc]@MIL-101
DOI: 10.1002/aic.15561
Article source: Figure 6A
Adsorbate Acetylene: InChIKey HSFWRNGVRCDJHI-UHFFFAOYSA-N
Kind: experiment
Temperature: 298 K
Tabular data in the source: 0
pressure (bar)	uptake (mmol/g)
0.005233	0.041264
0.00922	0.097286
0.024669	0.177009
0.038124	0.250268
0.050583	0.319217
0.064039	0.379548
0.076996	0.433415
0.091449	0.480818
0.105403	0.523911
0.11836	0.571314
0.130819	0.612253
0.145272	0.659656
0.157731	0.69844
0.17019	0.732915
0.185141	0.76308
0.198098	0.801864
0.211055	0.83203
0.224013	0.868659
0.23697	0.89667
0.251423	0.922526
0.264878	0.954846
0.32817	1.07982
0.398439	1.19832
0.465717	1.30175
0.531999	1.40302
0.598281	1.49782
0.66556	1.57755
0.731842	1.66158
0.798124	1.74346
0.865402	1.81672
0.932182	1.88351
0.998963	1.95677
1.06574	2.02141
