Adsorption isotherm of Nitrogen on 2.1-[Bmim][OAc]@MIL-101
DOI: 10.1002/aic.15561
Article source: Figure 4 (I)
Adsorbate Nitrogen: InChIKey IJGRMHOSHXDMSA-UHFFFAOYSA-N
Kind: experiment
Temperature: 77 K
Tabular data in the source: 0
pressure (bar)	uptake (cm3(STP)/g)
0	2.30769
0.010586	4.61539
0.049906	4.61539
0.099813	4.61539
0.120985	2.30769
0.157281	6.92308
0.193576	6.92308
0.228359	6.92308
0.264655	4.61539
0.299438	4.61539
0.334221	6.92308
0.369004	6.92308
0.4053	6.92308
0.440083	6.92308
0.474866	6.92308
0.511162	6.92308
0.545945	6.92308
0.582241	6.92308
0.617024	6.92308
0.653319	9.23077
0.689615	9.23077
0.722886	9.23077
0.759181	9.23077
0.795477	11.5385
0.83026	11.5385
0.865043	13.8462
0.901339	13.8462
0.93461	18.4615
0.969393	25.3846
1.00418	57.6923
0.978467	32.3077
0.933097	18.4615
0.886216	13.8462
0.84992	13.8462
0.813625	11.5385
0.777329	11.5385
0.739521	11.5385
0.70625	9.23077
0.671467	9.23077
0.633659	9.23077
0.598876	9.23077
0.564093	9.23077
0.52931	6.92308
0.493014	9.23077
0.456719	6.92308
0.420423	6.92308
0.387152	6.92308
0.350857	6.92308
0.314561	6.92308
0.279778	6.92308
0.244995	6.92308
0.208699	6.92308
0.173916	4.61539
0.137621	6.92308
0.10435	4.61539
0.07864	6.92308
0.045369	4.61539
