Adsorption isotherm of Ethene on 1.5-[Bmim][OAc]@MIL-101
DOI: 10.1002/aic.15561
Article source: Figure 6C
Adsorbate Ethene: InChIKey VGGSQFUCUMXWEO-UHFFFAOYSA-N
Kind: experiment
Temperature: 273 K
Tabular data in the source: 0
pressure (bar)	uptake (mmol/g)
0.015992	0.049661
0.027486	0.082048
0.04048	0.116595
0.053973	0.1533
0.067466	0.185688
0.08096	0.213757
0.093953	0.246144
0.106947	0.276373
0.121439	0.30876
0.134433	0.336829
0.146927	0.362739
0.16092	0.388649
0.173913	0.416718
0.187406	0.442628
0.2004	0.468538
0.214393	0.494448
0.227386	0.516039
0.241379	0.53979
0.253873	0.563541
0.267366	0.587292
0.331834	0.682295
0.401799	0.788094
0.469265	0.87446
0.534733	0.956508
0.602699	1.03208
0.668166	1.10117
0.736132	1.17242
0.802599	1.23288
0.868566	1.28902
0.936032	1.33868
1.0025	1.39266
1.06947	1.44016
