Adsorption isotherm of Acetylene on Cr-MIL(101)
DOI: 10.1002/aic.15561
Article source: Figure 6A
Adsorbate Acetylene: InChIKey HSFWRNGVRCDJHI-UHFFFAOYSA-N
Kind: experiment
Temperature: 298 K
Tabular data in the source: 0
pressure (bar)	uptake (mmol/g)
0.00744	0.102941
0.011905	0.154412
0.025298	0.257353
0.037202	0.386029
0.050595	0.482537
0.063988	0.57261
0.078869	0.65625
0.092262	0.733456
0.105655	0.804228
0.11756	0.875
0.130819	0.941918
0.144275	1.00009
0.157731	1.06043
0.171685	1.11214
0.185639	1.16816
0.198098	1.21987
0.211055	1.27374
0.224511	1.31683
0.238465	1.37285
0.252419	1.41379
0.265377	1.45904
0.326675	1.64434
0.398937	1.8555
0.465717	2.02572
0.532498	2.19809
0.598779	2.36185
0.666556	2.51268
0.732838	2.66135
0.798622	2.8014
0.866399	2.94577
0.933179	3.08366
0.999959	3.21725
1.06674	3.34653
