Adsorption isotherm of Methane on Zeolite 13X
DOI: 10.1016/j.jclepro.2015.03.082
Article source: Figure 3a- CH4 experiment
Adsorbate Methane: InChIKey VNWKTOKETHGBQD-UHFFFAOYSA-N
Kind: experiment
Temperature: 323 K
Tabular data in the source: 0
pressure (bar)	uptake ()
0.0022	4e-06
0.23259	4.1e-05
0.29328	5.5e-05
0.37334	7e-05
0.41107	7.8e-05
0.44501	8.8e-05
0.48594	8.9e-05
0.51548	0.000102
0.55661	0.0001
0.63627	0.000115
0.68638	0.000129
0.76943	0.000141
0.80876	0.000147
0.84111	0.000157
0.91158	0.000168
0.98286	0.000176
1.06251	0.000192
1.1845	0.000223
1.43765	0.000271
1.73212	0.000321
2.17793	0.000398
2.54169	0.000456
