Adsorption isotherm of Carbon Dioxide on Zeolite 13X
DOI: 10.1016/j.jclepro.2015.03.082
Article source: Figure 3a- CO2 experiment
Adsorbate Carbon Dioxide: InChIKey CURLTUGMZLYLDI-UHFFFAOYSA-N
Kind: experiment
Temperature: 323 K
Tabular data in the source: 0
pressure (bar)	uptake (mol/g)
0.00882	0.000125
0.01326	0.000292
0.02749	0.000461
0.04911	0.000668
0.06474	0.000838
0.11476	0.001195
0.14896	0.001385
0.17176	0.001524
0.23114	0.001799
0.2973	0.002
0.44497	0.002374
0.55743	0.002528
0.58761	0.002613
0.72464	0.002785
0.84428	0.002923
1.00746	0.003058
