Adsorption isotherm of Carbon Dioxide on CMS-3K
DOI: 10.1016/j.jclepro.2015.03.082
Article source: Figure 3b- CO2 experiment
Adsorbate Carbon Dioxide: InChIKey CURLTUGMZLYLDI-UHFFFAOYSA-N
Kind: experiment
Temperature: 323 K
Tabular data in the source: 0
pressure (bar)	uptake ()
0.0425	0.000132
0.12754	0.000332
0.22854	0.000544
0.40834	0.000841
1.19522	0.001318
2.38737	0.001761
4.5737	0.00214
