Adsorption isotherm of Methane on MOF-508b
DOI: 10.1016/j.jclepro.2015.03.082
Article source: Figure 3c- CH4 experiment
Adsorbate Methane: InChIKey VNWKTOKETHGBQD-UHFFFAOYSA-N
Kind: experiment
Temperature: 323 K
Tabular data in the source: 0
pressure (bar)	uptake ()
0.00067	2e-06
0.126	0.000155
0.53738	0.000381
1.02744	0.0006
2.05858	0.00099
3.04905	0.001373
4.51693	0.001867
