Adsorption isotherm of Carbon Dioxide on MOF-508b
DOI: 10.1016/j.jclepro.2015.03.082
Article source: Figure 3c- CO2 experiment
Adsorbate Carbon Dioxide: InChIKey CURLTUGMZLYLDI-UHFFFAOYSA-N
Kind: experiment
Temperature: 323 K
Tabular data in the source: 0
pressure (bar)	uptake ()
0.10023	0.000141
0.46551	0.000676
1.03568	0.001284
2.02693	0.002126
3.0555	0.002955
4.50419	0.00395
