Adsorption isotherm of Methane on CMS-3K
DOI: 10.1016/j.jclepro.2015.03.082
Article source: Figure 3b- CH4 experiment
Adsorbate Methane: InChIKey VNWKTOKETHGBQD-UHFFFAOYSA-N
Kind: experiment
Temperature: 323 K
Tabular data in the source: 0
pressure (bar)	uptake ()
0.00045	1.6e-05
0.08765	6.4e-05
1.85284	0.000784
4.93222	0.001311
