Adsorption isotherm of P-Xylene on ZIF-8
DOI: 10.1021/Ja211864w
Adsorbate P-Xylene: InChIKey URLKBWYHVLBVBO-UHFFFAOYSA-N
Temperature: 298 K
Tabular data in the source: 0
pressure (bar)	uptake (mmol/g)
0.00205085	0.336181
0.0030339	0.56057
0.00389831	0.785043
0.00440678	0.897225
