Adsorption isotherm of N-Octane on ZIF-8
DOI: 10.1021/Ja211864w
Adsorbate N-Octane: InChIKey TVMXDCGIABBOFY-UHFFFAOYSA-N
Temperature: 298 K
Tabular data in the source: 0
pressure (bar)	uptake (mmol/g)
0.00101695	0.34669
0.002	0.659152
0.003	0.922674
0.004	1.10791
0.00498305	1.23444
0.0059661	1.35118
0.00698305	1.44344
