Adsorption isotherm of P-Xylene on ZIF-8
DOI: 10.1021/Ja211864w
Adsorbate P-Xylene: InChIKey URLKBWYHVLBVBO-UHFFFAOYSA-N
Temperature: 298 K
Tabular data in the source: 0
pressure (bar)	uptake (mmol/g)
0.000101695	0.0195008
0.000254237	0.043859
0.000389831	0.068229
0.000542373	0.0974802
0.000677966	0.12185
0.000813559	0.151113
0.000949153	0.175483
0.00110169	0.204735
0.00123729	0.229105
0.00137288	0.258368
0.00150847	0.287631
0.00164407	0.312001
0.00177966	0.341264
0.0019322	0.370515
0.00198305	0.380265
0.00211864	0.409528
0.00225424	0.438791
0.00238983	0.468054
0.00252542	0.492424
0.00266102	0.521687
0.00279661	0.55095
0.0029322	0.580213
0.00310169	0.614346
0.00323729	0.643609
0.00337288	0.672872
0.00350847	0.702135
0.00364407	0.731398
0.00377966	0.760661
0.00391525	0.789924
0.00408475	0.828949
0.00422034	0.858212
0.00435593	0.897261
0.00455932	0.93137
0.00469492	0.960633
0.00483051	0.989896
0.00494915	1.01917
0.00508475	1.04843
0.00522034	1.0777
0.00535593	1.10696
0.00549153	1.13622
0.00561017	1.1655
0.00574576	1.19476
0.00588136	1.22402
0.00601695	1.25329
0.00613559	1.28256
0.00627119	1.31182
0.00640678	1.34109
0.00649153	1.36549
