Adsorption isotherm of Nitrogen on {[Tb(FDA)1.5(DMF)]*DMF}
DOI: 10.1002/chem.201203487
Adsorbate Nitrogen: InChIKey IJGRMHOSHXDMSA-UHFFFAOYSA-N
Temperature: 273 K
Tabular data in the source: 0
pressure (bar)	uptake (cm3(STP)/g)
0.0281538	0.338943
0.0746326	0.507957
0.126745	0.676971
0.173224	1.015
0.252097	1.43753
0.328154	1.77556
0.402802	2.1981
0.478858	2.53613
0.552097	2.87415
0.626745	3.12768
0.70421	3.55021
0.77745	3.88824
0.853506	4.31077
0.929562	4.56429
0.994351	4.81782
