Adsorption isotherm of Hydrogen on {[Tb(FDA)1.5(DMF)]*DMF}
DOI: 10.1002/chem.201203487
Adsorbate Hydrogen: InChIKey UFHFLCQGNIYNRP-UHFFFAOYSA-N
Temperature: 77 K
Tabular data in the source: 0
pressure (bar)	uptake (cm3(STP)/g)
0.00843546	0.677276
0.0253369	16.0012
0.0478721	24.9026
0.0985763	36.3956
0.147872	43.2688
0.199985	48.6773
0.274633	54.6491
0.346464	59.2688
0.450689	63.8885
0.526745	66.9308
0.597168	69.7477
0.671816	72.1139
0.747872	74.3674
0.854914	77.1843
0.909844	78.7618
0.999985	80.6773
