Adsorption isotherm of Hydrogen on {[Tb(FDA)1.5(DMF)]*DMF}
DOI: 10.1002/chem.201203487
Adsorbate Hydrogen: InChIKey UFHFLCQGNIYNRP-UHFFFAOYSA-N
Temperature: 87 K
Tabular data in the source: 0
pressure (bar)	uptake (cm3(STP)/g)
0.0211115	3.49418
0.0774495	8.5646
0.123928	12.3956
0.174633	15.5505
0.228154	18.7054
0.298576	21.635
0.376041	24.6773
0.449281	27.1561
0.52252	29.4097
0.598576	31.5505
0.673224	33.3533
0.746464	34.9308
0.821112	36.5083
0.873224	37.5223
0.923928	38.5364
0.973224	39.5505
