Adsorption isotherm of Carbon Dioxide on {[Tb(FDA)1.5(DMF)]*DMF}
DOI: 10.1002/chem.201203487
Adsorbate Carbon Dioxide: InChIKey CURLTUGMZLYLDI-UHFFFAOYSA-N
Temperature: 273 K
Tabular data in the source: 0
pressure (bar)	uptake (cm3(STP)/g)
0.0112524	2.02908
0.0267453	5.74739
0.050689	10.1418
0.0999848	16.8178
0.152097	21.8037
0.201393	25.8601
0.253506	29.4939
0.325337	33.8882
0.401393	37.7756
0.476041	41.2404
0.550689	44.6206
0.626745	47.4939
0.702802	50.1981
0.780266	53.0713
0.85914	55.6065
0.928154	57.9727
0.97745	59.4094
