Adsorption isotherm of Nitrogen on {[Tb(FDA)1.5(DMF)]*DMF}
DOI: 10.1002/chem.201203487
Adsorbate Nitrogen: InChIKey IJGRMHOSHXDMSA-UHFFFAOYSA-N
Temperature: 77 K
Tabular data in the source: 0
pressure (bar)	uptake (cm3(STP)/g)
0.00280166	112.684
0.00280166	146.486
0.00280166	173.951
0.00421011	25.3597
0.00421011	61.2752
0.0112524	180.994
0.174633	238.74
0.274633	277.472
0.349281	291.557
0.423928	303.529
0.499985	316.205
0.576041	328.177
0.650689	340.148
0.723928	350.008
0.798576	361.979
0.874633	371.134
0.923928	380.289
0.949281	383.81
0.974633	389.444
