Adsorption isotherm of Methane on {[Tb(FDA)1.5(DMF)]*DMF}
DOI: 10.1002/chem.201203487
Adsorbate Methane: InChIKey VNWKTOKETHGBQD-UHFFFAOYSA-N
Temperature: 273 K
Tabular data in the source: 0
pressure (bar)	uptake (cm3(STP)/g)
0.021489	0.636713
0.0979595	2.07873
0.172245	3.25856
0.248716	4.56949
0.325186	5.74932
0.425691	7.19133
0.52838	8.63335
0.628884	10.2065
0.700985	11.1241
0.781825	12.0418
0.87796	12.9594
0.952245	14.0081
0.995943	14.5325
