Adsorption isotherm of Ethane, Ethene on Molecular Sieves Type 13X
DOI: 10.1021/i160068a003
Article source: Table V
Adsorbate Ethane: InChIKey OTMSDBZUPAUEDD-UHFFFAOYSA-N
Adsorbate Ethene: InChIKey VGGSQFUCUMXWEO-UHFFFAOYSA-N
Kind: experiment
Temperature: 323 K
Tabular data in the source: 0
pressure (bar)	Ethane fraction	Ethane uptake (cm3(STP)/g)	Ethene fraction	Ethene uptake (cm3(STP)/g)	total uptake (cm3(STP)/g)
1.37842	0.239	2.9097	0.761	51.9903	54.9
1.37842	0.349	4.344	0.65	49.9017	54.3
1.37842	0.45	6.3665	0.549	47.1335	53.5
1.37842	0.204	2.4024	0.795	52.1976	54.6
1.37842	0.263	3.3062	0.737	50.8938	54.2
1.37842	0.396	5.0102	0.604	48.2898	53.3
1.37842	0.592	10.07	0.408	42.877	53
1.37842	0.7	14.214	0.3	37.286	51.5
1.37842	0.642	11.7648	0.358	39.8352	51.6
