Adsorption isotherm of Ethene on Molecular Sieves Type 13X
DOI: 10.1021/i160068a003
Article source: Table IV
Adsorbate Ethene: InChIKey VGGSQFUCUMXWEO-UHFFFAOYSA-N
Kind: experiment
Temperature: 323 K
Tabular data in the source: 0
pressure (bar)	uptake (cm3(STP)/g)
0.059728	21.91
0.236647	40.29
0.463695	48.02
0.194251	37.64
0.919791	53.96
1.15324	55.67
0.969387	54.2
0.187451	37.12
0.712075	51.57
0.965921	54.29
1.29576	56.59
1.07364	55.36
0.047863	19.66
0.142255	33.3
0.333839	44.22
0.551955	49.69
0.671278	51.51
0.03813	17.37
0.862196	53.6
1.37229	57.29
1.56827	58.25
