Adsorption isotherm of Ethane on Molecular Sieves Type 13X
DOI: 10.1021/i160068a003
Article source: Table II
Adsorbate Ethane: InChIKey OTMSDBZUPAUEDD-UHFFFAOYSA-N
Kind: experiment
Temperature: 323 K
Tabular data in the source: 0
pressure (bar)	uptake (cm3(STP)/g)
0.303175	19.67
0.354771	21.31
0.213449	14.19
0.259979	16.68
0.212116	14.17
0.163587	11.12
0.194917	12.86
0.164253	11.15
0.341839	20.61
0.412366	23.66
0.339839	20.43
0.4077	23.86
0.512491	27.72
0.541822	28.66
0.657546	31.92
0.745539	34.15
0.990585	38.68
0.873661	36.64
1.03285	39.75
1.29109	42.61
0.851797	36.27
0.980186	38.4
1.13391	40.31
1.30016	42.17
1.41748	43.16
1.09724	40.06
0.138922	9.55
0.392101	23.42
0.477427	26.79
0.121323	8.29
0.32464	20.32
1.01458	38.91
1.40402	42.93
1.18617	41.59
1.09311	39.93
0.259979	16.5
0.505825	27.38
0.68581	32.64
