Adsorption isotherm of Ethane, Ethene on Molecular Sieves Type 13X
DOI: 10.1021/i160068a003
Article source: Table V
Adsorbate Ethane: InChIKey OTMSDBZUPAUEDD-UHFFFAOYSA-N
Adsorbate Ethene: InChIKey VGGSQFUCUMXWEO-UHFFFAOYSA-N
Kind: experiment
Temperature: 298 K
Tabular data in the source: 0
pressure (bar)	Ethane fraction	Ethane uptake (cm3(STP)/g)	Ethene fraction	Ethene uptake (cm3(STP)/g)	total uptake (cm3(STP)/g)
1.37842	0.215	2.625	0.784	59.875	62.5
1.37842	0.239	2.808	0.76	59.592	62.4
1.37842	0.303	3.8247	0.697	58.8753	62.7
1.37842	0.344	4.5187	0.656	57.3813	61.9
1.37842	0.413	5.6764	0.587	56.0236	61.7
1.37842	0.717	15.4251	0.283	43.6749	59.1
1.37842	0.867	25.9464	0.134	30.9536	56.9
1.37842	0.944	34.4692	0.056	20.3308	54.8
1.37842	0.949	35.672	0.05	20.328	56
1.37842	0.987	42.987	0.012	10.413	53.4
1.37842	0.655	13.146	0.344	49.3914	62.6
1.37842	0.607	11.0898	0.392	49.5102	60.6
