Adsorption isotherm of Ethane on Molecular Sieves Type 13X
DOI: 10.1021/i160068a003
Article source: Table I
Adsorbate Ethane: InChIKey OTMSDBZUPAUEDD-UHFFFAOYSA-N
Kind: experiment
Temperature: 298 K
Tabular data in the source: 0
pressure (bar)	uptake (cm3(STP)/g)
0.011732	1.05
0.024265	2.39
0.043863	4.99
0.113191	15.2
0.160787	21.4
0.453563	38.99
0.295309	33.25
0.641281	42.47
0.167186	23.06
0.498626	40.79
0.108924	15.8
0.334772	34.9
0.8106	44.05
0.606883	42.1
0.439964	39.08
0.4113	38.1
0.328773	34.96
1.00912	46.39
1.35482	48.78
1.27963	48.44
1.26376	48.24
1.20337	47.71
1.12018	47.26
0.36317	36.73
1.15484	48
0.303175	33.52
