Adsorption isotherm of Ethene on Molecular Sieves Type 13X
DOI: 10.1021/i160068a003
Article source: Table III
Adsorbate Ethene: InChIKey VGGSQFUCUMXWEO-UHFFFAOYSA-N
Kind: experiment
Temperature: 298 K
Tabular data in the source: 0
pressure (bar)	uptake (cm3(STP)/g)
0.008799	9.86
0.037464	28.73
0.226648	50.75
0.758604	57.98
0.374636	54.93
0.095059	42.13
0.480494	56.77
0.258912	52.04
0.213449	50.54
0.279177	52.55
0.227581	50.92
0.977786	59.39
1.39255	61.52
0.997385	59.6
1.22257	60.88
0.946189	59.16
0.236381	50.74
0.974453	59.44
0.261312	52.06
0.958988	59.43
0.157454	46.86
0.811267	58.49
