Adsorption isotherm of Nitrogen on Co/Ni-MOF-74-4
DOI: 10.1021/acs.inorgchem.5b01278
Article source: Figure 1b- Co Ni MOF 74 4
Adsorbate Nitrogen: InChIKey IJGRMHOSHXDMSA-UHFFFAOYSA-N
Kind: experiment
Temperature: 77 K
Tabular data in the source: 0
pressure (bar)	uptake (cm3(STP)/g)
0.009666	240.39
0.034349	247.19
0.069894	251.387
0.08337	252.39
0.101112	253.596
0.122309	254.921
0.143527	261.652
0.14452	255.701
0.164461	256.55
0.182861	256.855
0.203146	257.432
0.203471	257.432
0.234344	263.483
0.254539	258.346
0.285362	264.108
0.304553	258.921
0.335963	264.445
0.355296	259.122
0.404783	264.917
0.40604	264.964
0.456581	259.795
0.458931	260.209
0.487819	280.741
0.507061	260.115
0.540032	280.771
0.559537	260.791
0.590704	280.037
0.608609	261.434
0.641114	279.336
0.65922	262.638
0.692121	279.078
0.710238	264.131
0.760941	279.022
0.762248	279.063
0.792807	278.969
0.811998	270.262
0.832871	271.978
0.835019	274.183
0.843085	279.663
0.863279	274.595
0.869561	280.29
0.88862	276.208
0.895298	281.241
0.913293	278.604
0.918835	283.16
0.938239	281.17
0.944248	285.352
0.962314	285.079
0.972598	291.76
0.988871	292.558
0.989479	293.082
0.995143	296.86
1.00403	306.84
1.00625	319.116
