Adsorption isotherm of Nitrogen on MOF-74-Ni
DOI: 10.1021/acs.inorgchem.5b01278
Article source: Figure 1b- Ni MOF 74
Adsorbate Nitrogen: InChIKey IJGRMHOSHXDMSA-UHFFFAOYSA-N
Kind: experiment
Temperature: 77 K
Tabular data in the source: 0
pressure (bar)	uptake (cm3(STP)/g)
0.012787	183.773
0.03292	188.142
0.067979	191.168
0.081708	192.222
0.102176	193.275
0.122046	193.921
0.14377	198.58
0.144044	198.57
0.163437	194.906
0.184503	195.194
0.204302	195.513
0.205102	195.483
0.234233	199.529
0.254366	196.042
0.284896	199.731
0.305292	196.125
0.33569	199.61
0.354891	196.175
0.388085	199.456
0.426882	195.849
0.437278	199.131
0.475883	195.49
0.488214	198.84
0.528076	195.37
0.539069	198.651
0.579072	195.164
0.588404	197.833
0.628134	194.873
0.639128	197.288
0.679131	194.276
0.69133	196.572
0.730128	193.696
0.742854	196.179
0.781388	193.406
0.793182	195.548
0.817318	195.462
0.832456	192.656
0.844118	195.002
0.851981	192.842
0.868244	195.137
0.883645	192.977
0.895308	195.017
0.91538	192.857
0.920639	195.05
0.947906	194.76
0.959902	193.757
0.968373	194.998
0.975436	196.613
0.990837	195.881
0.991171	198.738
0.999835	197.445
1.0051	199.962
1.01017	204.791
