Adsorption isotherm of Nitrogen on Diamond nanoparticles
DOI: 10.1016/j.diamond.2010.02.032
Article source: Figure 7b
Adsorbate Nitrogen: InChIKey IJGRMHOSHXDMSA-UHFFFAOYSA-N
Kind: experiment
Temperature: 77 K
Tabular data in the source: 0
pressure (bar)	uptake (cm3(STP)/g)
0	19.6165
0.002151	32.0081
0.006452	36.1424
0.010753	39.2441
0.025806	44.4219
0.049462	48.5761
0.073118	51.6979
0.096774	53.7872
0.146237	60.033
0.195699	66.2787
0.197849	63.1836
0.247312	71.4943
0.249462	69.4316
0.298925	77.7423
0.346237	82.9533
0.391398	89.1947
0.395699	85.0693
0.445161	90.2826
0.451613	97.5164
0.498925	97.5653
0.501075	106.86
0.546237	104.841
0.552688	118.27
0.595699	127.606
0.608602	115.23
0.647312	124.562
0.653763	147.283
0.701075	135.975
0.703226	162.82
0.750538	152.545
0.797849	172.21
0.8	220.737
0.849462	198.075
0.853763	268.286
0.898925	244.586
0.903226	313.764
0.91828	263.19
0.924731	331.338
0.939785	343.743
0.941935	290.058
0.954839	353.051
0.95914	313.822
0.967742	359.259
0.976344	362.365
0.980645	336.558
1	367.552
1.0043	353.102
