Adsorption isotherm of Nitrogen on Diamond nanoparticles
DOI: 10.1016/j.diamond.2010.02.032
Article source: Figure 7a
Adsorbate Nitrogen: InChIKey IJGRMHOSHXDMSA-UHFFFAOYSA-N
Kind: experiment
Temperature: 77 K
Tabular data in the source: 0
pressure (bar)	uptake (cm3(STP)/g)
0	2.69461
0.008114	45.8084
0.010142	47.6048
0.022312	51.1976
0.030426	53.8922
0.040568	56.5868
0.05071	58.3832
0.093306	64.6707
0.10142	64.6707
0.144016	70.9581
0.150101	71.8563
0.194726	77.2455
0.200811	78.1437
0.249493	84.4311
0.25355	84.4311
0.298174	90.7186
0.302231	90.7186
0.346856	97.006
0.397566	104.192
0.448276	112.275
0.498986	122.156
0.547667	132.934
0.59432	138.323
0.602434	150
0.647059	167.964
0.649087	153.593
0.69574	168.862
0.705882	205.689
0.74645	188.623
0.752535	284.731
0.791075	294.611
0.79716	217.365
0.843813	296.407
0.845842	254.192
0.888438	296.407
0.900609	291.916
0.922921	297.305
0.926978	298.204
0.93712	298.204
0.951318	298.204
0.971602	297.305
0.98783	298.204
