Adsorption isotherm of Hydrogen on [Zn6(mu6-O)(TPO)2]-(NO3)4-3H2O
DOI: 10.1021/ic402481b
Article source: Figure 4a
Adsorbate Hydrogen: InChIKey UFHFLCQGNIYNRP-UHFFFAOYSA-N
Kind: experiment
Temperature: 87 K
Tabular data in the source: 0
pressure (bar)	uptake (wt%)
0.017279	0.051337
0.021598	0.085561
0.038877	0.13262
0.066955	0.205348
0.095032	0.265241
0.12311	0.320856
0.146868	0.372193
0.172786	0.414973
0.200864	0.457754
0.226782	0.491979
0.2527	0.530481
0.280778	0.568984
0.306695	0.603209
0.328294	0.624599
0.358531	0.654545
0.390929	0.684492
0.412527	0.705882
0.440605	0.731551
0.464363	0.757219
0.4946	0.774332
0.520518	0.8
0.546436	0.817112
0.574514	0.838503
0.600432	0.859893
0.62635	0.872727
0.652268	0.894118
0.680346	0.91123
0.706263	0.928342
0.734341	0.941176
0.760259	0.954011
0.786177	0.971123
0.814255	0.979679
0.842333	0.996791
0.866091	1.00963
0.892009	1.02246
0.922246	1.03529
0.948164	1.04385
0.976242	1.06524
0.982721	1.06524
1.00216	1.0738
1.0108	1.0738
1.02808	1.07807
1.03888	1.08663
1.05832	1.09091
1.08207	1.10374
