Adsorption isotherm of Nitrogen on [Zn6(mu6-O)(TPO)2]-(NO3)4-3H2O
DOI: 10.1021/ic402481b
Article source: Figure 5a
Adsorbate Nitrogen: InChIKey IJGRMHOSHXDMSA-UHFFFAOYSA-N
Kind: experiment
Temperature: 273 K
Tabular data in the source: 0
pressure (bar)	uptake (cm3(STP)/g)
0.015184	0.273224
0.02603	0.819672
0.039046	0.546448
0.045553	1.0929
0.067245	0.819672
0.091106	1.36612
0.117137	1.63934
0.145336	1.63934
0.173536	2.18579
0.199566	2.45902
0.225597	2.45902
0.251627	2.73224
0.279826	3.00546
0.308026	3.27869
0.331887	3.55191
0.357918	3.82514
0.386117	4.09836
0.412148	4.37158
0.438178	4.37158
0.464208	4.37158
0.494577	4.64481
0.520607	5.19126
0.546638	5.19126
0.572668	5.46448
0.600868	5.7377
0.626898	6.01093
0.652928	6.28415
0.681128	6.28415
0.707158	6.55738
0.73102	6.8306
0.761388	7.10383
0.787419	7.37705
0.813449	7.37705
0.839479	7.9235
0.869848	7.9235
0.893709	8.19672
0.91974	8.19672
0.94577	8.74317
0.976139	8.74317
0.980477	8.74317
1	9.01639
1.00868	9.01639
1.02386	9.28962
1.03254	9.28962
1.05423	9.56284
1.08026	9.83607
