Adsorption isotherm of Methane on [Zn6(mu6-O)(TPO)2]-(NO3)4-3H2O
DOI: 10.1021/ic402481b
Article source: Figure S20a
Adsorbate Methane: InChIKey VNWKTOKETHGBQD-UHFFFAOYSA-N
Kind: experiment
Temperature: 295 K
Tabular data in the source: 0
pressure (bar)	uptake (cm3(STP)/g)
0.02346	0.777778
0.046921	1.03704
0.064516	1.81481
0.073314	2.07407
0.087976	2.33333
0.117302	3.11111
0.143695	3.62963
0.173021	4.40741
0.199413	4.92593
0.225806	5.44444
0.252199	6.22222
0.278592	6.74074
0.304985	7.25926
0.334311	8.03704
0.357771	8.55556
0.390029	9.07407
0.41349	9.85185
0.439883	10.3704
0.466276	10.8889
0.492669	11.4074
0.519062	12.1852
0.545455	12.7037
0.57478	13.2222
0.601173	13.7407
0.627566	14.2593
0.653959	14.7778
0.680352	15.2963
0.706745	15.8148
0.733138	16.3333
0.762463	16.8519
0.785924	17.3704
0.815249	17.8889
0.841642	18.4074
0.870968	18.6667
0.897361	19.1852
0.920821	19.7037
0.947214	20.2222
0.97654	20.7407
0.98827	20.7407
1.00293	21
1.01466	21.2593
1.02346	21.2593
1.03519	21.2593
1.05572	21.7778
1.08504	22.2963
