Adsorption isotherm of Carbon Dioxide on [Zn6(mu6-O)(TPO)2]-(NO3)4-3H2O
DOI: 10.1021/ic402481b
Article source: Figure 5a
Adsorbate Carbon Dioxide: InChIKey CURLTUGMZLYLDI-UHFFFAOYSA-N
Kind: experiment
Temperature: 273 K
Tabular data in the source: 0
pressure (bar)	uptake (cm3(STP)/g)
0.013015	3.82514
0.02603	4.64481
0.039046	8.19672
0.041215	7.9235
0.065076	12.8415
0.067245	11.7486
0.093275	15.847
0.119306	20.765
0.147505	24.5902
0.173536	27.8689
0.199566	29.5082
0.225597	33.3333
0.227766	34.4262
0.253796	37.4317
0.279826	40.1639
0.305857	42.8962
0.308026	41.5301
0.334056	43.9891
0.360087	48.0874
0.388286	48.9071
0.414317	53.0055
0.440347	55.4645
0.442516	54.0984
0.466377	57.6503
0.468547	56.0109
0.494577	57.6503
0.520607	60.1093
0.522777	61.4754
0.546638	63.388
0.548807	62.8415
0.574837	65.3005
0.600868	65.847
0.603037	67.2131
0.626898	67.4863
0.655098	70.765
0.681128	72.1311
0.707158	73.4973
0.709328	72.9508
0.733189	75.4098
0.735358	74.3169
0.761388	75.6831
0.787419	77.8689
0.813449	78.6885
0.815618	79.7814
0.841649	79.7814
0.869848	81.9672
0.895879	83.0601
0.921909	84.153
0.947939	85.7923
0.950108	85.2459
0.97397	86.612
0.984816	87.1585
1	87.4317
1.00868	88.5246
1.0282	88.5246
1.03905	89.3443
1.05423	89.8907
1.08026	90.9836
