Adsorption isotherm of Nitrogen on [Zn6(mu6-O)(TPO)2]-(NO3)4-3H2O
DOI: 10.1021/ic402481b
Article source: Figure S20a
Adsorbate Nitrogen: InChIKey IJGRMHOSHXDMSA-UHFFFAOYSA-N
Kind: experiment
Temperature: 295 K
Tabular data in the source: 0
pressure (bar)	uptake (cm3(STP)/g)
0.026393	0.259259
0.032258	0
0.043988	0.518519
0.055718	0
0.064516	0.777778
0.076246	0.259259
0.093842	0.777778
0.102639	0.518519
0.120235	0.777778
0.1261	0.518519
0.146628	1.03704
0.152493	0.777778
0.173021	1.55556
0.178886	1.03704
0.199413	1.55556
0.208211	1.03704
0.225806	1.55556
0.231672	1.2963
0.252199	1.81481
0.258065	1.2963
0.278592	1.81481
0.28739	1.81481
0.304985	1.81481
0.331378	2.07407
0.357771	2.07407
0.387097	2.33333
0.410557	2.59259
0.439883	2.59259
0.466276	2.85185
0.495601	2.85185
0.519062	3.11111
0.545455	3.11111
0.57478	3.37037
0.601173	3.37037
0.627566	3.62963
0.653959	3.62963
0.680352	3.88889
0.706745	3.88889
0.733138	4.14815
0.759531	4.40741
0.785924	4.40741
0.812317	4.66667
0.841642	4.66667
0.868035	4.66667
0.894428	4.92593
0.920821	4.92593
0.947214	5.18519
0.97654	5.44444
1	5.44444
1.00587	5.44444
1.02933	5.7037
1.03519	5.7037
1.05572	5.7037
1.08211	5.7037
