Adsorption isotherm of Carbon Dioxide on [Zn6(mu6-O)(TPO)2]-(NO3)4-3H2O
DOI: 10.1021/ic402481b
Article source: Figure S20a
Adsorbate Carbon Dioxide: InChIKey CURLTUGMZLYLDI-UHFFFAOYSA-N
Kind: experiment
Temperature: 295 K
Tabular data in the source: 0
pressure (bar)	uptake (cm3(STP)/g)
0.01173	2.33333
0.029326	3.11111
0.038123	4.92593
0.041056	4.66667
0.064516	6.48148
0.090909	9.07407
0.120235	12.1852
0.143695	14.5185
0.146628	13.7407
0.173021	16.8519
0.199413	18.9259
0.225806	21
0.252199	22.8148
0.278592	24.8889
0.307918	26.7037
0.334311	28.5185
0.360704	30.3333
0.387097	31.8889
0.41349	33.963
0.439883	35.5185
0.466276	37.0741
0.469208	36.037
0.492669	37.8519
0.495601	38.6296
0.519062	40.1852
0.521994	39.4074
0.545455	41.4815
0.548387	40.7037
0.57478	42.2593
0.601173	43.5556
0.627566	45.1111
0.653959	46.9259
0.680352	47.7037
0.706745	49.5185
0.709677	49
0.733138	51.0741
0.73607	50.2963
0.762463	51.5926
0.788856	53.1481
0.815249	54.4444
0.841642	54.963
0.868035	56.5185
0.894428	57.5556
0.897361	57.2963
0.920821	58.3333
0.950147	59.3704
0.973607	60.4074
0.985337	60.6667
1.00293	61.1852
1.01173	61.4444
1.02639	61.963
1.03812	62.4815
1.05572	63
1.08504	64.037
