Adsorption isotherm of Hydrogen on [Zn6(mu6-O)(TPO)2]-(NO3)4-3H2O
DOI: 10.1021/ic402481b
Article source: Figure 4a
Adsorbate Hydrogen: InChIKey UFHFLCQGNIYNRP-UHFFFAOYSA-N
Kind: experiment
Temperature: 77 K
Tabular data in the source: 0
pressure (bar)	uptake (wt%)
0.015119	0.141176
0.017279	0.158289
0.041037	0.312299
0.043196	0.325134
0.064795	0.440642
0.066955	0.453476
0.092873	0.547594
0.095032	0.560428
0.12095	0.645989
0.146868	0.722995
0.172786	0.787166
0.200864	0.842781
0.224622	0.894118
0.2527	0.936898
0.280778	0.983957
0.304536	1.01818
0.330454	1.05241
0.360691	1.08663
0.386609	1.12086
0.414687	1.1508
0.438445	1.17219
0.466523	1.19786
0.492441	1.21925
0.518359	1.24492
0.548596	1.26203
0.572354	1.28342
0.598272	1.30053
0.62635	1.31765
0.652268	1.33904
0.680346	1.35615
0.706263	1.37326
0.732181	1.38182
0.760259	1.39893
0.786177	1.41604
0.814255	1.42888
0.842333	1.43743
0.868251	1.45027
0.894168	1.46738
0.920086	1.47594
0.946004	1.48449
0.974082	1.5016
0.982721	1.5016
1.00216	1.51016
1.00864	1.51016
1.02592	1.51872
1.03888	1.51872
1.05616	1.52727
1.08207	1.53155
