Adsorption isotherm of Nitrogen on [Zn6(mu6-O)(TPO)2]-(NO3)4-3H2O
DOI: 10.1021/ic402481b
Article source: Figure 3
Adsorbate Nitrogen: InChIKey IJGRMHOSHXDMSA-UHFFFAOYSA-N
Kind: experiment
Temperature: 77 K
Tabular data in the source: 0
pressure (bar)	uptake (cm3(STP)/g)
0	-0.00275
0	135.616
0.001572	221.918
0.005894	233.425
0.012377	240
0.027505	248.219
0.053438	253.151
0.070727	254.795
0.090177	257.26
0.103143	258.082
0.118271	258.904
0.133399	260.548
0.152849	261.37
0.172299	262.192
0.187426	262.192
0.206876	263.014
0.226326	263.836
0.243615	263.836
0.260904	264.658
0.280354	264.658
0.297642	264.658
0.317092	265.479
0.334381	265.479
0.35167	266.301
0.37112	266.301
0.388409	266.301
0.405697	267.123
0.425147	267.123
0.444597	267.123
0.464047	267.123
0.479175	267.945
0.498625	267.945
0.515914	267.945
0.535363	267.945
0.552652	267.945
0.58723	268.767
0.60668	268.767
0.62613	268.767
0.64558	268.767
0.662868	269.589
0.673674	269.589
0.682318	269.589
0.690963	269.589
0.699607	269.589
0.708251	269.589
0.719057	269.589
0.736346	269.589
0.755796	270.411
0.768762	270.411
0.790373	270.411
0.807662	269.589
0.811984	269.589
0.833595	270.411
0.844401	270.411
0.857367	269.589
0.866012	269.589
0.878978	269.589
0.887623	270.411
0.907073	270.411
0.9222	270.411
0.937328	270.411
0.950295	269.589
0.969745	270.411
0.976228	271.233
0.989194	271.233
