Adsorption isotherm of Methane on [Zn6(mu6-O)(TPO)2]-(NO3)4-3H2O
DOI: 10.1021/ic402481b
Article source: Figure 5a
Adsorbate Methane: InChIKey VNWKTOKETHGBQD-UHFFFAOYSA-N
Kind: experiment
Temperature: 273 K
Tabular data in the source: 0
pressure (bar)	uptake (cm3(STP)/g)
0.067245	3.00546
0.093275	4.37158
0.119306	4.91803
0.145336	6.01093
0.173536	7.10383
0.199566	7.9235
0.225597	9.01639
0.253796	9.83607
0.279826	10.929
0.305857	11.7486
0.334056	12.5683
0.357918	13.388
0.386117	14.2077
0.412148	15.0273
0.440347	15.847
0.466377	16.9399
0.492408	17.4863
0.520607	18.306
0.546638	18.8525
0.572668	19.6721
0.600868	20.4918
0.626898	21.3115
0.652928	22.1311
0.681128	22.9508
0.707158	23.224
0.735358	24.0437
0.759219	24.8634
0.787419	25.9563
0.815618	26.2295
0.841649	27.0492
0.867679	27.5956
0.893709	28.1421
0.91974	28.6885
0.947939	29.235
0.9718	30.0546
0.984816	30.0546
1.00217	30.6011
1.01085	30.8743
1.0282	30.8743
1.03905	31.1475
1.0564	31.694
1.08243	32.2404
