Adsorption isotherm of Nitrogen on [Cd(PDCO)(bipy)*(H2o)*5H2O]n
DOI: 10.1016/j.inoche.2008.09.002
Adsorbate Nitrogen: InChIKey IJGRMHOSHXDMSA-UHFFFAOYSA-N
Temperature: 77 K
Tabular data in the source: 0
pressure (bar)	uptake (cm3(STP)/g)
0.0970703	6.28016
0.111987	7.35497
0.150109	7.59381
0.173313	7.83266
0.189887	7.95208
0.232981	8.42977
0.264473	8.66862
0.309224	8.90746
0.349003	9.14631
0.392096	9.26573
0.44182	9.50457
0.491543	9.624
0.528007	9.86284
0.571101	10.2211
0.617509	10.9376
0.658945	11.2959
0.705354	12.0124
0.748448	12.729
0.793199	13.9232
0.814746	14.4009
0.834635	15.1174
0.861154	17.267
0.879386	18.8195
0.904248	22.4022
0.925795	27.6568
0.944027	37.4495
0.952314	44.9731
0.963916	52.7355
0.967231	63.7224
