Adsorption isotherm of Carbon Dioxide on Pip-CPO-27-Ni
DOI: 10.1039/C2dt31112g
Adsorbate Carbon Dioxide: InChIKey CURLTUGMZLYLDI-UHFFFAOYSA-N
Temperature: 298 K
Tabular data in the source: 0
pressure (bar)	uptake (mmol/g)
0.011236	0.225797
0.0280899	0.513121
0.0589888	0.820706
0.115169	1.18941
0.244382	1.67991
0.348315	1.92435
0.47191	2.16839
0.522472	2.27009
0.634831	2.39107
0.69382	2.51314
0.808989	2.61351
0.865169	2.69455
0.929775	2.75487
0.985955	2.81536
1.04494	2.87579
