Adsorption isotherm of Nitrogen on Pip-CPO-27-Ni
DOI: 10.1039/C2dt31112g
Adsorbate Nitrogen: InChIKey IJGRMHOSHXDMSA-UHFFFAOYSA-N
Temperature: 298 K
Tabular data in the source: 0
pressure (bar)	uptake (mmol/g)
0.0280899	0.0405187
0.0449438	0.0607203
0.0702247	0.0602009
0.0983146	0.0596237
0.134831	0.0794213
0.168539	0.0581807
0.196629	0.0781515
0.235955	0.0978913
0.266854	0.0972564
0.300562	0.0965638
0.33427	0.136967
0.365169	0.136332
0.401685	0.115034
0.435393	0.134889
0.466292	0.134254
0.502809	0.154052
0.536517	0.132811
0.601124	0.17258
0.668539	0.191742
0.735955	0.190357
0.803371	0.20952
0.867978	0.208192
0.901685	0.2075
0.935393	0.206807
0.969101	0.226662
1.03371	0.266431
