Adsorption isotherm of Water on MOF-74-Ni
DOI: 10.1039/C2dt31112g
Adsorbate Water: InChIKey XLYOFNOQVPJJNP-UHFFFAOYSA-N
Temperature: 298 K
Tabular data in the source: 0
pressure (bar)	uptake (mol/mol)
0.000220399	2.12997
0.000297315	3.34292
0.000370985	4.08249
0.000649832	4.73312
0.000791691	5.41346
0.00093355	6.0938
0.00107399	6.56704
0.00121463	7.06986
0.00169663	7.33568
0.00204123	7.57204
0.0027282	7.71932
0.00327757	7.80756
0.00410194	7.9843
0.00492569	8.07228
0.00986701	8.42266
0.0149451	8.71374
0.0198852	8.8866
0.0248945	9.14815
0.0288759	9.55861
