Adsorption isotherm of Water on Pip-CPO-27-Ni
DOI: 10.1039/C2dt31112g
Adsorbate Water: InChIKey XLYOFNOQVPJJNP-UHFFFAOYSA-N
Temperature: 298 K
Tabular data in the source: 0
pressure (bar)	uptake (mmol/g)
7.85e-05	5.03356
0.00031417	7.55034
0.000471255	8.95973
0.000706883	9.7651
0.00117814	10.7718
0.00172794	11.4765
0.00235628	11.8792
0.00290607	12.2819
0.00353441	12.4832
0.0042413	12.6846
0.00502672	12.8859
0.0057336	13.0872
0.00651903	13.1879
0.00730445	13.3893
0.00801134	13.5906
0.00879676	13.7919
0.00950364	13.8926
0.0102891	14.094
0.010996	14.1946
0.0117814	14.2953
0.0125668	14.396
0.0132737	14.5973
0.0140591	14.698
0.0148445	14.8993
0.0150802	14.7987
0.0158656	14.8993
0.0165725	15.1007
0.0173579	15.2013
0.0181433	15.302
0.0189287	15.4027
0.0210494	15.8054
0.0218348	15.906
0.0226202	16.0067
0.0234057	16.0067
0.0241125	16.1074
0.0247409	16.3087
0.0253692	16.3087
0.0261547	16.4094
0.0269401	16.4094
0.0277255	16.5101
0.0284324	16.6107
0.028668	16.8121
