Adsorption isotherm of Water on MOF-74-Ni
DOI: 10.1039/C2dt31112g
Adsorbate Water: InChIKey XLYOFNOQVPJJNP-UHFFFAOYSA-N
Temperature: 298 K
Tabular data in the source: 0
pressure (bar)	uptake (mmol/g)
0.000157085	6.74497
0.000235628	10.7718
0.00031417	12.9866
0.000549798	15.2013
0.000785425	17.4161
0.000863967	21.2416
0.00164939	23.6577
0.00212065	24.2617
0.00251336	24.7651
0.0031417	25.0671
0.00392713	25.6711
0.00479109	26.0738
0.00534089	26.0738
0.00612632	26.2752
0.0068332	26.4765
0.00761862	26.5772
0.00832551	26.7785
0.0108389	27.3826
0.0116243	27.4832
0.0124097	27.5839
0.0131166	27.7852
0.013902	27.8859
0.0152372	28.0872
0.0160227	28.1879
0.0168081	28.2886
0.0170437	28.3893
0.0178291	28.3893
0.0186146	28.5906
0.0194	28.5906
0.0201854	28.7919
0.0209708	28.8926
0.0215992	28.9933
0.0223846	29.094
0.02317	29.1946
0.0238769	29.2953
0.0244267	29.396
0.0251336	29.4966
0.025919	29.698
0.0266259	30
0.0274113	30.2013
0.0281182	30.5034
0.0287466	30.7047
