Adsorption isotherm of Carbon Dioxide on MOF-74-Ni
DOI: 10.1039/C2dt31112g
Adsorbate Carbon Dioxide: InChIKey CURLTUGMZLYLDI-UHFFFAOYSA-N
Temperature: 298 K
Tabular data in the source: 0
pressure (bar)	uptake (mmol/g)
0.00842697	0.00842697
0.0337079	1.5404
0.0617978	2.36174
0.11236	3.10043
0.244382	4.00183
0.353933	4.36944
0.474719	4.65463
0.522472	4.75639
0.640449	4.97999
0.696629	5.10212
0.811798	5.28469
0.867978	5.36573
0.929775	5.4672
0.983146	5.52774
1.04494	5.60867
