Adsorption isotherm of Nitrogen on Pip-CPO-27-Ni
DOI: 10.1039/C2dt31112g
Adsorbate Nitrogen: InChIKey IJGRMHOSHXDMSA-UHFFFAOYSA-N
Temperature: 77 K
Tabular data in the source: 0
pressure (bar)	uptake (mmol/g)
0.00458716	0.426074
0.00917431	0.455046
0.0275229	0.492674
0.0504587	0.518694
0.0619266	0.536052
0.0963303	0.553344
0.126147	0.576446
0.183486	0.602367
0.233945	0.62251
0.288991	0.639742
0.33945	0.659886
0.389908	0.671334
0.440367	0.682782
0.493119	0.702918
0.543578	0.714366
0.594037	0.731611
0.644495	0.748857
0.701835	0.774777
0.747706	0.800731
0.798165	0.835368
0.850917	0.887389
0.90367	0.965497
0.954128	1.11318
0.977064	1.22905
