Adsorption isotherm of Water on Pip-CPO-27-Ni
DOI: 10.1039/C2dt31112g
Adsorbate Water: InChIKey XLYOFNOQVPJJNP-UHFFFAOYSA-N
Temperature: 298 K
Tabular data in the source: 0
pressure (bar)	uptake (mol/mol)
0.00015363	2.39631
0.000218572	1.8637
0.000361649	2.72155
0.000501682	3.13562
0.000778297	3.46081
0.00098591	3.72688
0.0013989	3.93359
0.00194909	4.14018
0.00256747	4.28752
0.00311704	4.40535
0.0040096	4.52285
0.00497054	4.6107
0.00778459	4.84474
0.00991227	5.02025
0.0128627	5.13582
0.0147842	5.25235
0.0172544	5.36837
0.0199309	5.54336
0.0224697	5.65931
0.0247342	5.77552
0.0271357	5.86202
0.0287822	5.89006
