Adsorption isotherm of Carbon Dioxide on Pip-CPO-27-Ni
DOI: 10.1039/C2dt31112g
Adsorbate Carbon Dioxide: InChIKey CURLTUGMZLYLDI-UHFFFAOYSA-N
Temperature: 308 K
Tabular data in the source: 0
pressure (bar)	uptake (mmol/g)
0.00789474	0.127063
0.0289474	0.30488
0.0552632	0.508084
0.115789	0.778843
0.244737	1.21014
0.35	1.43821
0.471053	1.64074
0.518421	1.7421
0.639474	1.91074
0.694737	1.97814
0.810526	2.12139
0.865789	2.18033
0.923684	2.23924
0.984211	2.29813
1.04474	2.35703
1.10263	2.40747
