Adsorption isotherm of Carbon Dioxide on Pip-CPO-27-Ni
DOI: 10.1039/C2dt31112g
Adsorbate Carbon Dioxide: InChIKey CURLTUGMZLYLDI-UHFFFAOYSA-N
Temperature: 318 K
Tabular data in the source: 0
pressure (bar)	uptake (mmol/g)
0	0.0338983
0.0105263	0.101621
0.0289474	0.254033
0.0578947	0.406371
0.118421	0.643231
0.25	1.03213
0.35	1.25177
0.465789	1.45434
0.518421	1.53024
0.636842	1.68194
0.694737	1.75781
0.813158	1.89256
0.865789	1.94304
0.928947	2.01039
0.981579	2.06934
1.04474	2.11974
1.10263	2.17018
