Adsorption isotherm of Carbon Dioxide on Pip-CPO-27-Ni
DOI: 10.1039/C2dt31112g
Adsorbate Carbon Dioxide: InChIKey CURLTUGMZLYLDI-UHFFFAOYSA-N
Temperature: 298 K
Tabular data in the source: 0
pressure (bar)	uptake (mmol/g)
0.00263158	0.152524
0.0289474	0.516745
0.0552632	0.79622
0.113158	1.15174
0.239474	1.65933
0.35	1.92126
0.471053	2.16616
0.515789	2.23365
0.636842	2.41923
0.692105	2.48664
0.813158	2.62138
0.868421	2.70573
0.928947	2.7731
0.984211	2.82356
1.04474	2.88245
1.1	2.93291
