Adsorption isotherm of Ibuprofen on MIL-53
DOI: 10.1039/C3tb21328e
Adsorbate Ibuprofen: InChIKey HEFNNWSXXWATRW-UHFFFAOYSA-N
Temperature: 310 K
Tabular data in the source: 0
pressure (bar)	uptake (mg/g)
8.07235e-10	-11.7003
5.21387e-09	58.715
5.236e-08	237.058
7.36699e-07	266.555
5.11117e-06	264.096
4.29586e-05	280.725
