Adsorption isotherm of Ibuprofen on Bio-MOF-100
DOI: 10.1039/C3tb21328e
Adsorbate Ibuprofen: InChIKey HEFNNWSXXWATRW-UHFFFAOYSA-N
Temperature: 310 K
Tabular data in the source: 0
pressure (bar)	uptake (mg/g)
3.8523e-05	37.6888
0.00033269	51.6204
0.0032986	142.062
0.0398318	245.351
0.327522	424.86
21.2549	1032.26
230.643	1377.53
2735.71	1964.89
7798.3	1994.13
