Adsorption isotherm of Ibuprofen on MOF-74
DOI: 10.1039/C3tb21328e
Adsorbate Ibuprofen: InChIKey HEFNNWSXXWATRW-UHFFFAOYSA-N
Temperature: 310 K
Tabular data in the source: 0
pressure (bar)	uptake (mg/g)
4.85378e-07	12.6783
4.85579e-06	19.0174
4.11273e-05	494.453
0.000572176	513.471
0.00338174	519.81
