Adsorption isotherm of Ibuprofen on CDMOF-1
DOI: 10.1039/C3tb21328e
Adsorbate Ibuprofen: InChIKey HEFNNWSXXWATRW-UHFFFAOYSA-N
Temperature: 310 K
Tabular data in the source: 0
pressure (bar)	uptake (mg/g)
8.23569e-15	-22.436
5.97998e-14	-24.8973
5.99377e-13	-1.68033
6.08695e-11	159.774
6.49651e-09	171.086
3.21477e-08	171.678
4.22173e-07	345.155
1.72342e-05	340.138
