Adsorption isotherm of Ibuprofen on MIL-101
DOI: 10.1039/C3tb21328e
Adsorbate Ibuprofen: InChIKey HEFNNWSXXWATRW-UHFFFAOYSA-N
Temperature: 310 K
Tabular data in the source: 0
pressure (bar)	uptake (mg/g)
0.00330065	-9.3409
0.03234	10.6409
0.260214	8.22144
3.09875	21.8957
21.9684	76.8458
56.65	613.081
130.086	1369.37
1064.9	1631.71
