Adsorption isotherm of Ibuprofen on MIL-100
DOI: 10.1039/C3tb21328e
Adsorbate Ibuprofen: InChIKey HEFNNWSXXWATRW-UHFFFAOYSA-N
Temperature: 310 K
Tabular data in the source: 0
pressure (bar)	uptake (mg/g)
8.42461e-09	1.8476
6.49696e-08	18.5246
1.03348e-06	67.3158
9.08615e-05	240.941
0.00574196	433.553
0.038602	615.785
0.297071	696.155
5.04752	744.971
26.2004	774.241
579.709	810.415
