Adsorption isotherm of Carbon Dioxide on 3D-HNU5
DOI: 10.1039/c9cc05710b
Article source: Figure 4
Adsorbate Carbon Dioxide: InChIKey CURLTUGMZLYLDI-UHFFFAOYSA-N
Kind: experiment
Temperature: 273 K
Tabular data in the source: 0
pressure (bar)	uptake (mg/g)
0.006737	3.44168
0.014821	8.03059
0.024253	12.6195
0.048507	19.7323
0.097687	30.5163
0.136088	37.1702
0.265439	54.608
0.373232	66.5392
0.521446	80.3059
0.7276	96.826
1.01258	116.788
