Adsorption isotherm of Nitrogen on 3D-HNU5
DOI: 10.1039/c9cc05710b
Article source: Figure 2
Adsorbate Nitrogen: InChIKey IJGRMHOSHXDMSA-UHFFFAOYSA-N
Kind: experiment
Temperature: 77 K
Tabular data in the source: 0
pressure (bar)	uptake (cm3(STP)/g)
0.003489	161.074
0.003489	174.88
0.004885	181.783
0.00977	192.713
0.030705	212.272
0.060711	226.654
0.081646	231.256
0.103977	234.132
0.12212	237.009
0.143055	239.31
0.165386	241.611
0.183529	243.912
0.204464	248.514
0.251917	254.267
0.299369	255.417
0.349613	258.869
0.376131	262.32
0.40544	265.772
0.429166	268.073
0.451496	270.374
0.47941	271.524
0.503136	273.826
0.531049	277.277
0.558962	279.578
0.578502	284.18
0.602228	286.481
0.630141	287.632
0.656659	291.083
0.683176	296.836
0.709694	300.288
0.73342	303.739
0.758542	309.492
0.785059	316.395
0.796225	316.395
0.810181	322.148
0.825534	324.449
0.836699	331.352
0.859029	339.406
0.885547	353.212
0.914856	375.072
0.924626	383.126
0.937186	392.33
0.949747	408.437
0.963704	425.695
0.973474	447.555
0.991617	482.071
0.991617	497.028
0.998596	513.135
0.998596	525.791
1.00697	548.802
1.00278	584.468
0.999991	567.21
0.993013	549.952
0.991617	528.092
0.980452	509.684
0.974869	486.673
0.960913	460.211
0.944165	429.147
0.938582	427.996
0.912065	403.835
0.884151	386.577
0.860425	374.497
0.836001	364.717
0.809483	356.663
0.784362	349.76
0.757146	344.008
0.73342	338.255
0.708298	334.803
0.655263	327.9
0.630839	323.298
0.605019	320.997
0.583386	317.546
0.557567	315.244
0.531747	313.519
0.505229	310.642
0.481503	302.013
0.452892	296.836
0.423583	293.384
0.398461	292.234
0.378922	292.234
0.352404	291.083
0.327283	287.632
0.303556	286.481
0.251917	284.18
0.200277	280.729
0.140962	274.401
