Adsorption isotherm of Carbon Dioxide on 3D-HNU5
DOI: 10.1039/c9cc05710b
Article source: Figure S14
Adsorbate Carbon Dioxide: InChIKey CURLTUGMZLYLDI-UHFFFAOYSA-N
Kind: experiment
Temperature: 273 K
Tabular data in the source: 0
pressure (bar)	uptake (mg/g)
0.006036	2.86093
0.015091	6.6755
0.024145	10.2517
0.050302	16.2119
0.098592	24.0795
0.136821	29.0861
0.264588	42.4371
0.370221	50.4238
0.515091	59.6026
0.71831	70.5695
1	83.2053
