Adsorption isotherm of Carbon Dioxide on 3D-HNU5
DOI: 10.1039/c9cc05710b
Article source: Figure 4
Adsorbate Carbon Dioxide: InChIKey CURLTUGMZLYLDI-UHFFFAOYSA-N
Kind: experiment
Temperature: 273 K
Tabular data in the source: 0
pressure (bar)	uptake (mg/g)
0.230805	3.44168
0.50777	8.03059
0.830896	12.6195
1.66179	19.7323
3.34667	30.5163
4.66225	37.1702
9.0937	54.608
12.7866	66.5392
17.8643	80.3059
24.9269	96.826
34.6899	116.788
