Adsorption isotherm of Nitrogen on 3D-HNU5 in 0.1 M NaOH
DOI: 10.1039/c9cc05710b
Article source: Figure 3
Adsorbate Nitrogen: InChIKey IJGRMHOSHXDMSA-UHFFFAOYSA-N
Kind: experiment
Temperature: 77 K
Tabular data in the source: 0
pressure (bar)	uptake (cm3(STP)/g)
0.000623	68.7117
0.001868	87.1166
0.00685	98.1595
0.030516	120.245
0.060409	136.196
0.077846	141.718
0.099021	150.92
0.118949	157.055
0.140124	159.509
0.158807	163.19
0.180604	167.485
0.19991	168.098
0.250977	175.46
0.301422	177.914
0.353112	185.276
0.378023	185.276
0.404179	186.503
0.430335	191.411
0.452755	195.092
0.477666	195.092
0.505068	198.773
0.528733	200
0.55489	203.681
0.579801	206.135
0.607203	208.589
0.633359	212.27
0.657024	217.178
0.683181	219.632
0.706846	224.54
0.730512	229.448
0.757913	234.356
0.78407	240.491
0.79528	244.172
0.80649	247.853
0.832646	255.215
0.846347	261.35
0.857557	268.712
0.883713	285.89
0.92108	321.472
0.936026	336.196
0.950973	358.282
0.960314	388.957
0.972147	419.632
0.978375	444.172
0.987094	477.301
0.995812	509.202
1.00204	544.785
1.00329	558.282
1.00702	592.638
1.00578	628.221
