Adsorption isotherm of Nitrogen on 3D-HNU5 boiling in water
DOI: 10.1039/c9cc05710b
Article source: Figure 3
Adsorbate Nitrogen: InChIKey IJGRMHOSHXDMSA-UHFFFAOYSA-N
Kind: experiment
Temperature: 77 K
Tabular data in the source: 0
pressure (bar)	uptake (cm3(STP)/g)
0.003114	88.3436
0.008096	110.429
0.011833	125.153
0.026779	138.65
0.045462	155.828
0.059163	159.509
0.077846	168.098
0.101512	184.049
0.121441	191.411
0.14386	195.092
0.161298	198.773
0.182472	200
0.201155	203.681
0.249732	208.589
0.30329	208.589
0.354357	214.724
0.375531	218.405
0.402933	217.178
0.425353	218.405
0.454001	220.859
0.482648	224.54
0.501331	224.54
0.524997	224.54
0.556135	228.221
0.579801	229.448
0.60222	229.448
0.628377	229.448
0.654533	233.129
0.676953	236.81
0.709337	240.491
0.735494	242.945
0.754177	244.172
0.782824	247.853
0.797771	249.08
0.808981	251.534
0.826418	253.988
0.847593	257.669
0.858803	262.577
0.886205	269.939
0.911115	280.982
0.922325	288.344
0.931044	298.16
0.947236	306.748
0.960937	322.699
0.965919	332.515
0.969656	347.239
0.97962	358.282
0.983357	370.552
0.987094	386.503
0.988339	397.546
0.992076	413.497
0.994567	429.448
0.995812	445.399
0.997058	456.442
1.0008	476.074
1.0008	487.117
1.00204	500.613
1.00204	511.656
1.00204	522.699
1.00453	532.515
1.00453	542.331
