Adsorption isotherm of Nitrogen on 3D-HNU5 in 1 M HCl
DOI: 10.1039/c9cc05710b
Article source: Figure 3
Adsorbate Nitrogen: InChIKey IJGRMHOSHXDMSA-UHFFFAOYSA-N
Kind: experiment
Temperature: 77 K
Tabular data in the source: 0
pressure (bar)	uptake (cm3(STP)/g)
0.00685	121.472
0.01806	148.466
0.034252	169.325
0.044217	177.914
0.0629	185.276
0.079092	197.546
0.104003	209.816
0.130159	214.724
0.151334	223.313
0.165035	225.767
0.181227	226.994
0.202401	230.675
0.252223	230.675
0.302044	238.037
0.352489	238.65
0.378023	240.491
0.401688	241.718
0.426599	242.945
0.455246	245.399
0.478912	246.626
0.5032	248.466
0.528733	250.307
0.557381	250.307
0.583537	250.307
0.605957	253.988
0.632114	256.442
0.65827	258.896
0.68069	260.123
0.704355	260.123
0.733003	262.577
0.757913	265.031
0.785315	269.939
0.789052	269.939
0.799016	269.939
0.808981	272.393
0.827664	276.074
0.84261	279.755
0.858803	283.436
0.886205	292.025
0.907379	304.294
0.92108	309.202
0.933535	320.245
0.9435	332.515
0.952218	339.877
0.963428	361.963
0.97962	385.276
0.987094	404.908
0.987094	420.859
0.99083	445.399
0.994567	469.939
0.995812	495.706
1.0008	525.153
1.00204	542.331
