Adsorption isotherm of Nitrogen on 3D-HNU5 in DMF
DOI: 10.1039/c9cc05710b
Article source: Figure 3
Adsorbate Nitrogen: InChIKey IJGRMHOSHXDMSA-UHFFFAOYSA-N
Kind: experiment
Temperature: 77 K
Tabular data in the source: 0
pressure (bar)	uptake (cm3(STP)/g)
0.001868	154.601
0.00685	171.779
0.013078	186.503
0.02927	206.135
0.057918	217.178
0.081583	224.54
0.101512	228.221
0.120195	230.675
0.140124	233.129
0.162543	236.81
0.179981	239.264
0.1887	239.264
0.19991	239.264
0.249732	246.626
0.30329	251.534
0.351866	253.988
0.376777	257.669
0.404179	260.123
0.431581	261.35
0.457737	266.258
0.476421	266.258
0.503823	267.485
0.531224	273.62
0.553644	276.074
0.582292	278.528
0.607203	279.755
0.630868	280.982
0.655779	283.436
0.683181	287.117
0.706846	290.798
0.731757	294.479
0.755422	299.387
0.785315	306.748
0.792789	307.975
0.808981	314.11
0.828909	321.472
0.84261	322.699
0.856311	330.061
0.884959	344.785
0.912361	364.417
0.923571	371.779
0.937272	382.822
0.948482	397.546
0.959692	412.27
0.970902	434.356
0.97962	453.988
0.989585	485.89
0.995812	509.202
0.999549	533.742
1.00204	561.963
