Adsorption isotherm of Nitrogen on 3D-HNU5 in CHCl3
DOI: 10.1039/c9cc05710b
Article source: Figure 3
Adsorbate Nitrogen: InChIKey IJGRMHOSHXDMSA-UHFFFAOYSA-N
Kind: experiment
Temperature: 77 K
Tabular data in the source: 0
pressure (bar)	uptake (cm3(STP)/g)
0.000623	168.098
0.00685	191.411
0.011833	200
0.030516	226.994
0.060409	234.356
0.08532	241.718
0.118949	245.399
0.14386	249.08
0.168771	250.307
0.184963	251.534
0.207383	253.988
0.250977	263.804
0.302044	267.485
0.354357	271.166
0.376777	273.62
0.405425	274.847
0.42909	277.301
0.456492	279.755
0.481403	282.209
0.505691	283.436
0.529979	287.117
0.55489	288.957
0.581046	292.025
0.60658	293.252
0.632114	298.16
0.65827	300.613
0.68069	304.294
0.705601	306.748
0.733003	311.656
0.759159	315.337
0.781579	320.245
0.794034	322.699
0.80649	325.153
0.832646	334.969
0.845102	341.104
0.857557	347.239
0.886205	355.828
0.912361	374.233
0.92108	381.595
0.929799	391.411
0.937272	401.227
0.947236	413.497
0.955955	425.767
0.963428	436.81
0.970902	456.442
0.978375	474.847
0.988339	501.84
0.998303	530.061
0.999549	552.147
1.0008	563.19
1.00204	584.049
1.00329	604.908
