Adsorption isotherm of Nitrogen on 3D-HNU5 in EtOH
DOI: 10.1039/c9cc05710b
Article source: Figure 3
Adsorbate Nitrogen: InChIKey IJGRMHOSHXDMSA-UHFFFAOYSA-N
Kind: experiment
Temperature: 77 K
Tabular data in the source: 0
pressure (bar)	uptake (cm3(STP)/g)
0.001246	167.485
0.005605	181.595
0.008096	196.933
0.026779	224.54
0.057918	238.037
0.080338	240.491
0.104003	244.172
0.123932	252.761
0.146351	253.988
0.176244	256.442
0.196173	255.215
0.252223	261.35
0.30329	269.939
0.356226	276.687
0.379268	276.074
0.405425	278.528
0.430335	280.982
0.454001	283.436
0.481403	285.89
0.507559	288.344
0.531224	289.571
0.556135	293.252
0.583537	294.479
0.603466	296.933
0.63585	300.613
0.65827	304.294
0.684426	304.294
0.709337	307.975
0.734248	314.11
0.760405	320.245
0.789052	331.288
0.808981	336.196
0.828909	342.331
0.846347	348.466
0.860048	353.374
0.883713	368.098
0.908624	381.595
0.912361	385.276
0.928553	396.319
0.93229	400
0.938517	406.135
0.954709	424.54
0.962183	444.172
0.972147	471.166
0.982111	505.521
0.989585	532.515
0.995812	566.871
1.00329	608.589
