Adsorption isotherm of Nitrogen on 3D-HNU5 in Hexane
DOI: 10.1039/c9cc05710b
Article source: Figure 3
Adsorbate Nitrogen: InChIKey IJGRMHOSHXDMSA-UHFFFAOYSA-N
Kind: experiment
Temperature: 77 K
Tabular data in the source: 0
pressure (bar)	uptake (cm3(STP)/g)
0.000623	109.202
0.004359	120.245
0.008096	131.288
0.015569	141.104
0.024288	152.147
0.033007	161.963
0.042971	170.552
0.052936	180.368
0.064146	188.957
0.079092	200
0.100266	208.589
0.123932	215.951
0.145106	222.086
0.163789	224.54
0.186209	226.994
0.206138	230.675
0.254714	235.583
0.30329	240.491
0.350621	242.945
0.380514	245.399
0.405425	246.626
0.42909	249.08
0.455246	252.761
0.481403	256.442
0.501331	257.669
0.531224	257.669
0.551153	260.123
0.581046	261.35
0.604712	265.031
0.633359	265.031
0.655779	268.712
0.678199	269.939
0.705601	272.393
0.734248	274.847
0.756668	278.528
0.782824	283.436
0.792789	285.89
0.799016	285.89
0.805244	287.117
0.830155	294.479
0.845102	298.16
0.858803	303.067
0.884959	311.656
0.911115	323.926
0.919834	331.288
0.936026	342.331
0.949727	360.736
0.958446	368.098
0.96841	391.411
0.973393	406.135
0.984602	420.859
0.986471	450.307
0.99083	471.166
0.994567	495.706
0.999549	521.472
1.00329	546.012
1.00578	563.19
1.00578	582.209
