Adsorption isotherm of Nitrogen on 3D-HNU5 refluxing in DMF
DOI: 10.1039/c9cc05710b
Article source: Figure 3
Adsorbate Nitrogen: InChIKey IJGRMHOSHXDMSA-UHFFFAOYSA-N
Kind: experiment
Temperature: 77 K
Tabular data in the source: 0
pressure (bar)	uptake (cm3(STP)/g)
0.000623	100.613
0.000623	115.337
0.002491	131.288
0.008096	149.693
0.014324	168.098
0.025534	186.503
0.031761	188.957
0.047953	204.908
0.061032	217.178
0.077846	233.129
0.100266	244.785
0.118949	252.761
0.140124	263.19
0.15943	266.871
0.182472	271.166
0.201155	273.62
0.250977	278.528
0.304535	283.436
0.351866	289.571
0.376777	292.025
0.404802	295.092
0.42909	295.706
0.452132	298.16
0.478289	300.613
0.502577	303.067
0.528733	305.521
0.556135	307.975
0.581669	309.816
0.604089	311.043
0.631491	313.497
0.655779	316.564
0.681935	319.632
0.706846	321.472
0.734248	326.38
0.757913	330.061
0.784693	333.129
0.797771	336.196
0.80649	338.65
0.830155	346.012
0.845102	348.466
0.856311	353.374
0.883713	363.19
0.907379	379.141
0.919834	387.73
0.934781	401.227
0.948482	415.951
0.958446	433.742
0.965919	451.534
0.973393	461.35
0.974638	478.528
0.980866	496.933
0.985848	512.883
0.989585	521.472
0.989585	532.515
0.994567	553.374
0.994567	568.098
0.997058	591.411
1.0008	611.043
0.999549	622.086
1.00204	645.399
1.00204	668.712
1.00329	687.117
1.00702	710.429
1.00453	723.926
