Adsorption isotherm of Nitrogen on 3D-HNU5 in DMSO
DOI: 10.1039/c9cc05710b
Article source: Figure 3
Adsorbate Nitrogen: InChIKey IJGRMHOSHXDMSA-UHFFFAOYSA-N
Kind: experiment
Temperature: 77 K
Tabular data in the source: 0
pressure (bar)	uptake (cm3(STP)/g)
0.003114	179.141
0.011833	190.184
0.031761	207.362
0.057918	219.632
0.080338	230.675
0.102757	233.129
0.120195	235.583
0.141369	236.81
0.158807	240.491
0.182472	242.945
0.203024	244.785
0.252223	250.92
0.302044	252.761
0.355603	257.669
0.375531	258.896
0.404179	262.577
0.430335	266.258
0.454624	268.712
0.48078	269.325
0.505691	272.393
0.531224	274.847
0.556135	278.528
0.581046	279.755
0.605957	283.436
0.633359	287.117
0.65827	288.344
0.681935	293.252
0.708092	298.16
0.734248	301.84
0.759159	304.294
0.782824	310.429
0.794034	312.883
0.807112	317.178
0.828909	325.153
0.841365	330.061
0.856311	336.196
0.884959	348.466
0.911115	364.417
0.92108	374.233
0.936026	387.73
0.945991	401.227
0.960937	422.086
0.972147	445.399
0.983357	474.847
0.988339	490.798
0.992076	507.975
0.995812	523.926
0.997058	534.969
0.999549	568.098
1.00204	576.687
