Adsorption isotherm of Nitrogen on Ag@3D-HNU5
DOI: 10.1039/c9cc05710b
Article source: Figure S13
Adsorbate Nitrogen: InChIKey IJGRMHOSHXDMSA-UHFFFAOYSA-N
Kind: experiment
Temperature: 77 K
Tabular data in the source: 0
pressure (bar)	uptake (cm3(STP)/g)
0.119563	34.5324
0.239125	43.1655
0.398542	49.1007
1.11592	58.2734
2.11227	66.9065
2.74994	70.1439
3.46731	73.9209
4.22454	76.6187
4.82236	78.2374
5.57959	80.3957
6.21725	82.0144
6.97448	83.0935
8.68821	85.7914
10.4817	88.4892
12.1555	90.6475
13.0323	91.7266
13.8693	93.3453
14.7461	94.964
15.6228	96.0432
16.4996	97.1223
17.3366	98.2014
18.2134	99.2806
19.0503	100.899
19.9669	102.518
20.8437	104.137
21.7205	105.755
22.5575	106.835
23.3944	108.993
24.2712	110.612
25.1081	113.309
25.9849	115.468
26.8617	118.705
27.3001	120.324
27.6588	122.482
28.4559	126.799
29.0139	130.036
29.4921	133.273
30.3689	141.367
31.2058	151.079
31.6442	158.633
32.0428	167.266
32.4812	177.518
32.9196	192.086
33.1985	207.734
33.4775	217.446
33.7565	235.252
33.8761	242.806
33.9159	251.439
34.0753	266.007
34.0753	270.863
34.3145	287.05
34.4739	302.158
34.4739	311.871
34.4739	315.108
34.2347	310.791
34.2347	304.317
34.2347	297.842
33.9956	288.129
33.9159	282.734
33.7565	273.022
33.5971	256.835
33.2782	238.489
33.1188	235.252
32.242	208.273
32.242	207.194
31.6841	191.007
31.3652	188.849
30.4087	173.741
29.2928	166.187
28.6552	159.712
27.8581	156.475
26.9016	151.079
26.0248	146.763
25.0683	142.446
24.3509	141.367
22.677	134.892
21.6408	131.655
20.6046	131.655
19.7278	131.655
19.1699	130.576
18.2931	129.496
17.3366	127.338
16.4598	117.626
15.4236	116.547
14.7062	115.468
13.7497	114.388
12.9526	112.23
12.0758	111.151
11.199	110.072
10.4019	108.993
8.64836	107.914
6.89477	106.835
4.82236	103.597
