Adsorption isotherm of Nitrogen on 3D-HNU5
DOI: 10.1039/c9cc05710b
Article source: Figure 3
Adsorbate Nitrogen: InChIKey IJGRMHOSHXDMSA-UHFFFAOYSA-N
Kind: experiment
Temperature: 273 K
Tabular data in the source: 0
pressure (bar)	uptake (mg/g)
0.008084	-0.229446
0.024253	-0.229446
0.051201	0
0.10375	0.229446
0.137436	0.458891
0.266787	1.14723
0.375927	1.72084
0.518752	2.29446
0.726252	2.98279
1.01325	4.13002
