Adsorption isotherm of Nitrogen on Red-PV-COF
DOI: 10.1039/c9sc04663a
Article source: Figure S5C
Adsorbate Nitrogen: InChIKey IJGRMHOSHXDMSA-UHFFFAOYSA-N
Kind: experiment
Temperature: 77 K
Tabular data in the source: 0
pressure (bar)	uptake ()
0.007818	67.0192
0.018764	71.9231
0.025019	74.5192
0.037528	76.25
0.045346	78.5577
0.054728	79.1346
0.06411	80.2885
0.073492	81.4423
0.089128	82.5962
0.095383	83.1731
0.100074	83.75
0.11102	84.6154
0.117274	84.9038
0.123529	85.4808
0.131347	86.3462
0.140729	87.7885
0.150111	88.0769
0.156366	89.2308
0.167311	90.0962
0.176693	90.6731
0.187639	91.5385
0.197021	92.4038
0.206403	93.5577
0.217348	93.8462
0.229858	94.7115
0.242367	95.8654
0.259567	97.0192
0.278331	98.1731
0.286149	98.4615
0.300222	99.6154
0.312731	100.769
0.325241	101.058
0.340877	101.635
0.35495	102.212
0.369023	103.654
0.38466	104.231
0.400296	104.519
0.420624	105.673
0.437824	106.538
0.456588	107.404
0.473788	108.558
0.485516	109.135
0.506625	109.712
0.528516	110.865
0.545716	111.731
0.555098	112.019
0.566044	112.596
0.587935	113.173
0.612954	114.327
0.633281	114.327
0.652045	115.481
0.661427	116.346
0.673936	116.346
0.688009	117.212
0.706773	117.788
0.727101	118.365
0.741174	119.231
0.753683	119.808
0.772447	121.25
0.780265	121.827
0.792774	122.404
0.80372	122.981
0.813102	124.135
0.82092	124.712
0.827175	125.288
0.83812	126.442
0.845939	127.019
0.855321	128.173
0.864703	129.038
0.870957	129.327
0.875648	129.904
0.881903	131.058
0.888157	131.635
0.892848	132.5
0.894412	133.077
0.899103	133.942
0.906921	135.385
0.960086	148.654
0.989795	164.519
0.963213	155.288
0.910049	143.462
0.809975	132.5
0.708337	128.462
0.606699	125.721
0.503498	124.135
0.403424	121.827
0.30335	120.096
0.200148	118.942
0.103201	115.769
0.092256	115.481
0.082874	114.038
0.071928	113.173
0.062546	112.596
0.054728	111.731
0.039091	110
0.029709	108.558
0.018764	105.673
0.010164	101.346
