Adsorption isotherm of Nitrogen on PV-COF
DOI: 10.1039/c9sc04663a
Article source: Figure S5A
Adsorbate Nitrogen: InChIKey IJGRMHOSHXDMSA-UHFFFAOYSA-N
Kind: experiment
Temperature: 77 K
Tabular data in the source: 0
pressure (bar)	uptake (cm3(STP)/g)
0.0088	6.26882
0.015084	6.94247
0.019797	7.32741
0.02451	7.71235
0.032365	8.00105
0.043362	8.38599
0.051217	8.48223
0.059072	8.6747
0.070069	9.44458
0.084208	9.44458
0.099918	9.82952
0.110915	10.022
0.131338	10.4069
0.151761	10.5994
0.170613	10.7919
0.192607	11.1768
0.214601	11.273
0.22874	11.273
0.247591	11.658
0.263301	11.9467
0.27744	12.2354
0.296292	12.3316
0.305718	12.3316
0.321428	12.3316
0.333996	12.4279
0.351277	12.6203
0.370129	12.8128
0.390552	13.0053
0.40312	13.0053
0.421972	13.1977
0.440824	13.4865
0.459676	13.4865
0.484812	13.8714
0.503664	14.1601
0.535084	14.2563
0.553936	14.6413
0.568075	14.8337
0.586927	14.8337
0.610492	15.0262
0.630915	15.3149
0.641912	15.5074
0.65448	15.6999
0.67019	15.9886
0.687471	16.181
0.706323	16.566
0.726746	16.7584
0.743241	17.2396
0.750311	17.3359
0.766021	17.6246
0.769163	17.7208
0.78173	18.1057
0.794298	18.4907
0.803724	18.8756
0.810008	19.2606
0.817863	19.5493
0.827289	19.9342
0.838286	20.8003
0.849283	21.3777
0.86028	21.9551
0.868135	22.8213
0.874419	23.4949
0.879132	24.1685
0.886987	24.6497
0.899555	25.8045
0.912123	27.3443
0.956111	36.1979
0.990673	48.1311
0.962395	42.9344
0.909767	32.7335
0.806866	22.725
0.707894	18.7794
0.60735	16.566
0.506806	15.2187
0.404691	13.8714
0.30886	13.1015
0.202033	12.4279
0.104631	11.658
0.093634	11.5618
0.084208	11.273
0.073211	10.8881
0.063785	10.5994
0.051217	10.3107
0.041791	10.3107
0.04022	10.022
0.029223	10.022
0.021368	9.63705
0.010371	8.9634
