Adsorption isotherm of Nitrogen on Zn-PV-COF
DOI: 10.1039/c9sc04663a
Article source: Figure S5B
Adsorbate Nitrogen: InChIKey IJGRMHOSHXDMSA-UHFFFAOYSA-N
Kind: experiment
Temperature: 77 K
Tabular data in the source: 0
pressure (bar)	uptake (cm3(STP)/g)
0.006264	0.846154
0.017227	0.961538
0.028189	1.15385
0.040718	1.30769
0.05168	1.38461
0.068907	1.53846
0.07987	1.61539
0.095531	1.76923
0.198891	2.30769
0.300686	2.65385
0.402481	3.03846
0.504276	3.38461
0.604505	3.92308
0.707866	4.53846
0.80966	5.73077
0.903625	7.92308
0.96157	12
0.989759	17.6538
0.963136	13.6923
0.892662	8.38461
0.790867	6.38461
0.68594	5.46154
0.585712	5
0.485483	4.53846
0.385254	4
0.295988	3.76923
0.181665	3.42308
0.084568	3.11539
0.067341	3
0.054813	3
0.038369	2.84615
0.028189	2.65385
0.021925	2.46154
0.004698	2.19231
