Adsorption isotherm of Nitrogen on PV-COF after incubation in NaBrO3 solution
DOI: 10.1039/c9sc04663a
Article source: Figure S11A
Adsorbate Nitrogen: InChIKey IJGRMHOSHXDMSA-UHFFFAOYSA-N
Kind: experiment
Temperature: 77 K
Tabular data in the source: 0
pressure (bar)	uptake (cm3(STP)/g)
0.005319	4.70779
0.015957	5.35714
0.026594	5.84416
0.026594	6.00649
0.039892	6.33117
0.055848	6.49351
0.069146	6.81818
0.082443	7.30519
0.090421	7.30519
0.106378	7.46753
0.114356	7.79221
0.140951	7.95455
0.154248	8.27922
0.163556	8.36039
0.175524	8.44156
0.186161	8.6039
0.199459	8.92857
0.210096	9.09091
0.223394	9.09091
0.23935	9.09091
0.255307	9.09091
0.271264	9.25325
0.276583	9.74026
0.28988	9.74026
0.308496	9.74026
0.324453	9.9026
0.340409	9.9026
0.353707	9.9026
0.372323	9.9026
0.393598	9.9026
0.409555	9.9026
0.425512	9.9026
0.43615	10.0649
0.452106	10.0649
0.473382	10.0649
0.491998	9.9026
0.505295	9.9026
0.521252	9.9026
0.537209	10.0649
0.555825	10.2273
0.569122	10.0649
0.57976	10.0649
0.590398	10.0649
0.601035	10.0649
0.611673	10.0649
0.632949	10.3896
0.651565	10.2273
0.670181	10.3896
0.688797	10.3896
0.704754	10.5519
0.718051	10.8766
0.728689	11.039
0.739327	11.3636
0.755283	11.526
0.760602	11.6883
0.77124	12.013
0.781878	12.3377
0.795175	12.5812
0.808472	12.8247
0.81911	13.3117
0.827089	13.7987
0.837726	14.1234
0.845705	14.2857
0.851024	14.4481
0.856343	15.0974
0.861661	15.2597
0.86964	15.5844
0.877618	16.2338
0.888256	16.8831
0.890915	17.2078
0.898894	18.1818
0.909531	19.3994
0.957402	28.2468
0.991974	40.2597
0.960061	32.9545
0.912191	23.9448
0.807143	15.9091
0.707413	13.1494
0.606354	12.1753
0.505295	11.8506
0.401577	11.039
0.308496	11.2013
0.199459	11.2013
0.101059	11.3636
0.090421	11.2013
0.079783	11.039
0.069146	10.8766
0.058508	11.039
0.04787	10.7143
0.037232	10.7143
0.029254	10.5519
0.015957	10.3896
0.007978	9.74026
