Adsorption isotherm of Carbon Dioxide on La-PCP
DOI: 10.1021/Ic401157n
Adsorbate Carbon Dioxide: InChIKey CURLTUGMZLYLDI-UHFFFAOYSA-N
Temperature: 195 K
Tabular data in the source: 0
pressure (bar)	uptake (cm3(STP)/g)
0.00801532	4.56951
0.0108756	9.20318
0.0137359	15.3814
0.025177	20.0151
0.0566402	24.8203
0.110986	29.6256
0.173912	32.3715
0.261151	35.4606
0.382713	38.7213
0.535738	42.8401
0.688763	46.6157
0.784583	50.0481
0.837498	56.9128
0.85609	82.3121
0.880403	85.916
0.916156	96.5563
0.976222	106.338
