Adsorption isotherm of Ethane on Ho-PCP
DOI: 10.1021/Ic401157n
Adsorbate Ethane: InChIKey OTMSDBZUPAUEDD-UHFFFAOYSA-N
Temperature: 273 K
Tabular data in the source: 0
pressure (bar)	uptake (cm3(STP)/g)
0.112524	3.26822
0.253369	6.76117
0.35196	8.84568
0.577312	11.0429
0.830833	12.5077
1.07027	13.2964
1.88717	14.9302
2.53506	16.1696
3.21112	17.2964
3.90126	17.9161
4.57731	18.4795
5.23928	18.9865
5.92943	19.2682
6.68999	19.6062
7.61957	19.6062
8.99985	19.4936
9.35196	19.6626
