Adsorption isotherm of Ethene on Y-PCP
DOI: 10.1021/Ic401157n
Adsorbate Ethene: InChIKey VGGSQFUCUMXWEO-UHFFFAOYSA-N
Temperature: 195 K
Tabular data in the source: 0
pressure (bar)	uptake (cm3(STP)/g)
0.000865	9.91103
0.00229475	5.33457
0.00658518	14.9451
0.00801532	23.9836
0.015166	32.7933
0.0294675	36.7977
0.0537799	41.3742
0.113846	46.2939
0.173912	49.383
0.228257	51.2136
0.304055	53.273
0.414176	55.79
0.640139	59.1079
0.745969	60.3665
0.85323	61.2818
0.95906	62.4259
1.0177	64.5997
