Adsorption isotherm of Ethene on Ho-PCP
DOI: 10.1021/Ic401157n
Adsorbate Ethene: InChIKey VGGSQFUCUMXWEO-UHFFFAOYSA-N
Temperature: 273 K
Tabular data in the source: 0
pressure (bar)	uptake (cm3(STP)/g)
0.0984391	3.60624
0.309707	9.63441
0.563228	12.1133
0.830833	14.0288
1.09844	15.0992
1.53506	16.1133
2.21112	17.8598
2.90126	19.2119
3.57731	20.226
4.32379	21.1274
5.35196	22.0851
6.32379	22.7612
7.0421	23.2119
7.80266	23.6626
8.43647	23.9443
9.11252	24.0569
