Adsorption isotherm of Ethene on Y-PCP
DOI: 10.1021/Ic401157n
Adsorbate Ethene: InChIKey VGGSQFUCUMXWEO-UHFFFAOYSA-N
Temperature: 273 K
Tabular data in the source: 0
pressure (bar)	uptake (cm3(STP)/g)
0.112524	5.35287
0.577312	15.0008
0.859002	18.4515
1.16886	20.4937
2.5914	24.2261
3.53506	26.4092
4.61957	28.1698
5.64773	29.5078
6.60548	30.705
7.6759	31.3388
8.6759	32.2543
