Adsorption isotherm of Ethane on La-PCP
DOI: 10.1021/Ic401157n
Adsorbate Ethane: InChIKey OTMSDBZUPAUEDD-UHFFFAOYSA-N
Temperature: 273 K
Tabular data in the source: 0
pressure (bar)	uptake (cm3(STP)/g)
0.337876	0.592616
1.29562	0.691208
1.66182	2.46586
1.99985	4.14191
2.35196	5.52219
3.0421	7.49402
3.74633	8.87431
4.47872	9.95881
5.14069	10.3532
5.83083	10.8461
6.859	11.8321
7.92943	12.6208
8.61957	13.0152
9.26745	13.0152
