Adsorption isotherm of Ethane on La-PCP
DOI: 10.1021/Ic401157n
Adsorbate Ethane: InChIKey OTMSDBZUPAUEDD-UHFFFAOYSA-N
Temperature: 195 K
Tabular data in the source: 0
pressure (bar)	uptake (cm3(STP)/g)
0.0423388	1.48041
0.385573	1.48041
0.485683	1.30879
0.534308	1.30879
0.595804	1.30879
0.647289	1.30879
0.698774	1.48041
0.747399	1.48041
0.798884	1.30879
0.85752	1.30879
0.900425	1.30879
0.95048	1.13717
