Adsorption isotherm of Ethene on La-PCP
DOI: 10.1021/Ic401157n
Adsorbate Ethene: InChIKey VGGSQFUCUMXWEO-UHFFFAOYSA-N
Temperature: 195 K
Tabular data in the source: 0
pressure (bar)	uptake (cm3(STP)/g)
0.0123058	1.13717
0.0623608	1.48041
0.113846	1.48041
0.15246	1.82364
0.205375	1.99526
0.312636	1.48041
0.429908	1.99526
0.469952	3.53981
0.527157	4.05466
0.591514	4.22628
0.693054	4.91275
0.745969	4.91275
0.847509	5.25598
0.898994	5.08437
0.997674	4.91275
