Adsorption isotherm of Ethane on Y-PCP
DOI: 10.1021/Ic401157n
Adsorbate Ethane: InChIKey OTMSDBZUPAUEDD-UHFFFAOYSA-N
Temperature: 273 K
Tabular data in the source: 0
pressure (bar)	uptake (cm3(STP)/g)
0.112524	5.14161
0.591397	14.4374
0.859002	17.7472
1.2252	19.2965
2.53506	22.4656
3.5914	25.0712
4.5914	26.4796
5.61957	27.6064
6.63365	28.1698
7.64773	28.4515
8.71816	28.8036
