Adsorption isotherm of Carbon Dioxide on Y-PCP
DOI: 10.1021/Ic401157n
Adsorbate Carbon Dioxide: InChIKey CURLTUGMZLYLDI-UHFFFAOYSA-N
Temperature: 273 K
Tabular data in the source: 0
pressure (bar)	uptake (cm3(STP)/g)
0.0984391	6.40921
0.535059	19.7191
0.830833	25.3529
1.12661	28.4515
1.49281	31.0571
2.81675	35.8458
3.81675	38.9444
4.83083	41.4092
5.83083	43.381
6.88717	45.0712
7.91534	46.2684
8.91534	47.6064
