Adsorption isotherm of Carbon Dioxide on Ho-PCP
DOI: 10.1021/Ic401157n
Adsorbate Carbon Dioxide: InChIKey CURLTUGMZLYLDI-UHFFFAOYSA-N
Temperature: 273 K
Tabular data in the source: 0
pressure (bar)	uptake (cm3(STP)/g)
0.182946	7.38089
0.309707	10.3105
0.591397	14.1415
0.746326	15.7189
0.929425	17.5217
1.53506	20.3386
2.18295	23.0429
2.859	25.3527
3.80266	27.7189
4.84492	29.7471
5.90126	31.4372
6.90126	32.7893
7.94351	33.8034
8.64773	34.5358
9.23928	35.2119
