Adsorption isotherm of Carbon Dioxide on La-PCP
DOI: 10.1021/Ic401157n
Adsorbate Carbon Dioxide: InChIKey CURLTUGMZLYLDI-UHFFFAOYSA-N
Temperature: 273 K
Tabular data in the source: 0
pressure (bar)	uptake (cm3(STP)/g)
0.0280166	6.11374
0.323791	21.6912
0.689988	27.7053
1.33788	33.1278
1.95759	37.0715
2.66182	40.5222
3.36604	43.6771
4.4083	48.0152
5.0421	50.1842
5.74633	52.3532
6.50689	54.6208
7.14069	56.0997
7.83083	57.6771
8.50689	59.2546
9.19703	60.8321
