Adsorption isotherm of Ethene on Ho-PCP
DOI: 10.1021/Ic401157n
Adsorbate Ethene: InChIKey VGGSQFUCUMXWEO-UHFFFAOYSA-N
Temperature: 195 K
Tabular data in the source: 0
pressure (bar)	uptake (cm3(STP)/g)
0.00396841	2.49294
0.00492184	9.28135
0.00873556	15.6884
0.0154096	21.409
0.0325713	26.2142
0.0516398	28.7313
0.102172	31.5534
0.156517	32.7738
0.212769	33.7654
0.278556	34.6044
0.360551	35.2909
0.467335	36.2062
0.569352	36.3587
0.673275	36.9689
0.774339	37.3503
0.878263	37.4266
0.974559	37.8079
1.00316	38.2656
