Adsorption isotherm of Carbon Dioxide on Ho-PCP
DOI: 10.1021/Ic401157n
Adsorbate Carbon Dioxide: InChIKey CURLTUGMZLYLDI-UHFFFAOYSA-N
Temperature: 195 K
Tabular data in the source: 0
pressure (bar)	uptake (cm3(STP)/g)
0.00301498	3.94215
0.00396841	18.6631
0.0115958	26.138
0.029711	29.6466
0.0516398	32.7738
0.104078	36.1299
0.138402	37.0452
0.18226	38.113
0.237558	39.1046
0.28809	39.9436
0.363411	40.6301
0.464474	41.4691
0.577932	42.3081
0.681856	42.5369
0.78292	42.9183
0.88589	43.2234
0.939282	43.2234
0.987907	43.5285
1.01365	43.6048
