Adsorption isotherm of Carbon Dioxide on Y-PCP
DOI: 10.1021/Ic401157n
Adsorbate Carbon Dioxide: InChIKey CURLTUGMZLYLDI-UHFFFAOYSA-N
Temperature: 195 K
Tabular data in the source: 0
pressure (bar)	uptake (cm3(STP)/g)
0.000155	20.1886
0.00110812	29.1127
0.00206155	10.6543
0.00968898	36.2062
0.0258973	42.5369
0.0411521	47.571
0.0783359	52.2238
0.145076	56.724
0.208956	59.3936
0.270928	61.6818
0.405362	64.809
0.506425	66.7922
0.671368	69.0804
0.773385	70.6822
0.877309	71.5975
0.982186	72.589
1.05655	73.3518
