Adsorption isotherm of Ethene on La-PCP
DOI: 10.1021/Ic401157n
Adsorbate Ethene: InChIKey VGGSQFUCUMXWEO-UHFFFAOYSA-N
Temperature: 273 K
Tabular data in the source: 0
pressure (bar)	uptake (cm3(STP)/g)
0.0421011	0.494025
1.11252	0.7898
1.43647	2.07149
1.78858	4.2405
2.15478	6.80388
2.80266	10.5504
3.47872	12.9166
4.16886	15.2828
4.87309	17.0574
5.19703	17.8461
5.90126	18.6349
6.56323	19.2264
7.2252	20.1137
7.95759	20.5081
8.63365	21.0011
9.23928	21.5926
