Adsorption isotherm of Carbon Dioxide on Mn(III)-porphyrin/In(III)
DOI: 10.1039/C2cc31075a
Adsorbate Carbon Dioxide: InChIKey CURLTUGMZLYLDI-UHFFFAOYSA-N
Temperature: 196 K
Tabular data in the source: 0
pressure (bar)	uptake (cm3(STP)/g)
0.0116208	0.734508
0.0488914	1.28013
0.0954431	2.74485
0.146597	5.49786
0.190766	8.068
0.223289	10.4561
0.258082	14.1329
0.288223	17.6265
0.309064	20.5692
0.367022	27.3726
0.406444	31.7852
0.459851	36.1952
0.511005	38.9482
0.564489	41.7008
0.620331	43.9005
0.669179	46.1014
0.722759	46.8282
0.769302	48.4771
0.822872	49.3881
0.874103	50.4836
0.923003	51.5796
0.971877	53.228
