Adsorption isotherm of Hydrogen on Mn(III)-porphyrin/In(III)
DOI: 10.1039/C2cc31075a
Adsorbate Hydrogen: InChIKey UFHFLCQGNIYNRP-UHFFFAOYSA-N
Temperature: 77 K
Tabular data in the source: 0
pressure (bar)	uptake (cm3(STP)/g)
0.0067956	4.23448
0.0157591	11.9676
0.0434051	18.9607
0.0618215	23.9297
0.0872996	27.4241
0.115134	30.3655
0.145326	32.7541
0.17089	34.4068
0.21739	36.9765
0.252287	38.4434
0.29416	40.2773
0.322089	41.193
0.373328	42.1044
0.422203	43.7528
0.475765	44.8479
0.524673	45.7597
0.573573	46.8557
0.624804	47.9512
0.67373	48.4947
0.724969	49.4061
0.776209	50.3175
0.822804	50.8614
0.864719	51.7745
0.925283	52.6841
0.976565	52.6747
