Adsorption isotherm of Nitrogen on Mn(III)-porphyrin/In(III)
DOI: 10.1039/C2cc31075a
Adsorbate Nitrogen: InChIKey IJGRMHOSHXDMSA-UHFFFAOYSA-N
Temperature: 77 K
Tabular data in the source: 0
pressure (bar)	uptake (cm3(STP)/g)
0.00441306	5.33989
0.0459078	15.277
0.0947219	18.2146
0.127296	19.4977
0.173848	20.9625
0.222731	22.4268
0.269291	23.7073
0.318191	24.8033
0.369396	26.4513
0.420619	27.731
0.469519	28.827
0.525403	30.1058
0.571955	31.5705
0.620855	32.6665
0.672069	34.1304
0.720943	35.7788
0.772131	37.7952
0.816309	40.1812
0.872124	42.9333
0.911537	47.5301
0.955397	56.7301
0.975578	73.8535
0.991363	85.2686
