Adsorption isotherm of 4-aminophenylarsonic acid, Water on Fe-Mn
DOI: 10.1016/j.scitotenv.2017.05.219
Article source: Figure 3
Adsorbate 4-aminophenylarsonic acid: InChIKey XKNKHVGWJDPIRJ-UHFFFAOYSA-N
Adsorbate Water: InChIKey XLYOFNOQVPJJNP-UHFFFAOYSA-N
Kind: experiment
Temperature: 298 K
Tabular data in the source: 0
pressure (bar)	4-aminophenylarsonic acid fraction	4-aminophenylarsonic acid uptake (mmol/g)	Water fraction	Water uptake (mmol/g)	total uptake (mmol/g)
1.01325	0.05496	0.17716			
1.01325	0.05607	0.22771			
1.01325	0.07476	0.28572			
1.01325	0.10968	0.42121			
1.01325	0.15001	0.50139			
1.01325	0.22485	0.68146			
1.01325	0.3002	0.79065			
1.01325	0.45029	0.814			
1.01325	0.60139	0.92942			
