Adsorption isotherm of Nitrogen on Fe-Mn
DOI: 10.1016/j.scitotenv.2017.05.219
Article source: Figure 1
Adsorbate Nitrogen: InChIKey IJGRMHOSHXDMSA-UHFFFAOYSA-N
Kind: experiment
Temperature: 77 K
Tabular data in the source: 0
pressure (bar)	uptake (cm3(STP)/g)
1.01323	107.42
1.01323	116.6
1.01323	127.31
1.01323	127.96
1.01323	134.95
1.01323	141.94
1.01323	142.82
1.01323	145.22
1.01323	151.78
1.01323	155.71
1.01323	163.79
1.01323	173.19
1.01323	182.36
1.01323	193.51
1.01323	205.09
1.01323	214.86
1.01323	205.84
1.01323	230.46
1.01323	220.75
1.01323	249.88
1.01323	239.48
1.01323	275.2
1.01323	258.9
1.01323	312.31
1.01323	283.87
1.01323	361.91
1.01323	307.46
1.01323	415.66
1.01323	341.1
1.01323	445.84
1.01323	361.21
1.01323	481.56
1.01323	384.1
1.01323	522.83
1.01323	413.58
1.01323	443.76
1.01323	561.33
1.01323	485.38
1.01323	599.48
1.01323	614.74
1.01323	547.46
1.01323	645.61
1.01323	619.94
1.01323	673.7
1.01323	639.71
1.01323	670.92
1.01323	688.61
