Adsorption isotherm of Nitrogen on Fe(OH)3
DOI: 10.1016/j.scitotenv.2017.05.219
Article source: Figure 1
Adsorbate Nitrogen: InChIKey IJGRMHOSHXDMSA-UHFFFAOYSA-N
Kind: experiment
Temperature: 77 K
Tabular data in the source: 0
pressure (bar)	uptake (cm3(STP)/g)
1.01323	47.69
1.01323	67.11
1.01323	74.05
1.01323	76.82
1.01323	77.17
1.01323	77.17
1.01323	80.64
1.01323	80.98
1.01323	81.68
1.01323	83.41
1.01323	85.14
1.01323	86.18
1.01323	90
1.01323	96.59
1.01323	99.36
1.01323	104.57
1.01323	108.38
1.01323	103.53
1.01323	119.83
1.01323	106.3
1.01323	119.48
1.01323	123.64
1.01323	112.2
1.01323	131.27
1.01323	116.01
1.01323	133.35
1.01323	125.72
1.01323	144.78
1.01323	132.11
1.01323	153.52
1.01323	141.29
1.01323	160.51
1.01323	146.09
1.01323	164.88
1.01323	152.21
1.01323	182.36
1.01323	162.7
1.01323	196.78
1.01323	179.74
1.01323	225.62
1.01323	200.28
1.01323	236.11
1.01323	256.21
1.01323	314.76
1.01323	291.17
1.01323	354.96
1.01323	402.59
1.01323	331.81
1.01323	386.43
1.01323	451.1
