Adsorption isotherm of 4-aminophenylarsonic acid, Water on Fe-(OH)3
DOI: 10.1016/j.scitotenv.2017.05.219
Article source: Figure 3
Adsorbate 4-aminophenylarsonic acid: InChIKey XKNKHVGWJDPIRJ-UHFFFAOYSA-N
Adsorbate Water: InChIKey XLYOFNOQVPJJNP-UHFFFAOYSA-N
Kind: experiment
Temperature: 298 K
Tabular data in the source: 0
pressure (bar)	4-aminophenylarsonic acid fraction	4-aminophenylarsonic acid uptake (mmol/g)	Water fraction	Water uptake (mmol/g)	total uptake (mmol/g)
1.01325	0.05496	0.17716			
1.01325	0.07549	0.21424			
1.01325	0.14988	0.25526			
1.01325	0.22464	0.2795			
1.01325	0.44941	0.33894			
1.01325	0.60068	0.35045			
