Adsorption isotherm of Methane on Maxsorb III
DOI: 10.1016/j.energy.2014.08.033
Adsorbate Methane: InChIKey VNWKTOKETHGBQD-UHFFFAOYSA-N
Temperature: 130 K
Tabular data in the source: 0
pressure (bar)	uptake (cm3(STP)/cm3)
-0.00750203	84.5541
-0.00362167	40.8192
0.0419854	126.789
0.120291	144.219
0.313041	171.763
0.488433	194.948
0.725549	222.456
0.980799	245.577
1.35153	267.149
3.1871	278.811
3.43502	284.446
3.56618	306.207
