Adsorption isotherm of Methane on CuBTC
DOI: 10.1016/j.energy.2014.08.033
Adsorbate Methane: InChIKey VNWKTOKETHGBQD-UHFFFAOYSA-N
Temperature: 200 K
Tabular data in the source: 0
pressure (bar)	uptake (g/g)
0.1	0.00643939
0.21049	0.03838
0.312571	0.0566269
0.642808	0.103715
0.932603	0.126504
1.26186	0.156856
1.87382	0.197831
2.05651	0.222088
2.20513	0.243312
3.35161	0.272169
4.97703	0.2889
8.30218	0.301106
14.1749	0.310285
19.6304	0.314884
27.1857	0.319483
33.5158	0.319517
38.5354	0.31954
