Adsorption isotherm of Methane on MOF-74-Ni
DOI: 10.1016/j.energy.2014.08.033
Adsorbate Methane: InChIKey VNWKTOKETHGBQD-UHFFFAOYSA-N
Temperature: 130 K
Tabular data in the source: 0
pressure (bar)	uptake (cm3(STP)/cm3)
-0.00372514	109.323
-0.00191431	221.576
0.00804526	241.985
0.0284042	279.861
0.14065	314.757
0.333788	337.927
0.519736	342.153
0.936255	347.653
1.40601	353.111
1.95575	357.048
2.58574	356.548
3.41826	373.38
3.61075	403.84
