Adsorption isotherm of Methane on NU-125
DOI: 10.1016/j.energy.2014.08.033
Adsorbate Methane: InChIKey VNWKTOKETHGBQD-UHFFFAOYSA-N
Temperature: 130 K
Tabular data in the source: 0
pressure (bar)	uptake (cm3(STP)/cm3)
0.0212644	160.333
0.116281	189.412
0.368558	246.063
0.517976	261.98
0.762931	301.144
1.00711	349.055
1.15627	367.887
2.36994	388.79
3.57578	398.037
