Adsorption isotherm of Methane on MOF-74-Ni
DOI: 10.1016/j.energy.2014.08.033
Adsorbate Methane: InChIKey VNWKTOKETHGBQD-UHFFFAOYSA-N
Temperature: 130 K
Tabular data in the source: 0
pressure (bar)	uptake (g/g)
0.0187433	0.106347
0.0269974	0.0577865
0.142403	0.164072
0.256844	0.182497
0.388937	0.207848
0.555873	0.20543
1.10951	0.207394
2.01475	0.218385
2.68252	0.211028
3.47355	0.224403
3.63188	0.238176
