Adsorption isotherm of Methane on NU-125
DOI: 10.1016/j.energy.2014.08.033
Adsorbate Methane: InChIKey VNWKTOKETHGBQD-UHFFFAOYSA-N
Temperature: 130 K
Tabular data in the source: 0
pressure (bar)	uptake (g/g)
0.0183877	0.0739769
0.0282165	0.168768
0.0549092	0.198809
0.116777	0.23114
0.416008	0.272571
0.548379	0.323354
0.81264	0.380991
1.06801	0.429386
1.20894	0.459355
2.43071	0.486331
3.61705	0.487897
