Adsorption isotherm of Methane on CuBTC
DOI: 10.1016/j.energy.2014.08.033
Adsorbate Methane: InChIKey VNWKTOKETHGBQD-UHFFFAOYSA-N
Temperature: 130 K
Tabular data in the source: 0
pressure (bar)	uptake (cm3(STP)/cm3)
-0.00103476	11.6626
0.0226096	45.1716
0.0292838	69.9476
0.0431494	113.668
0.0585677	139.895
0.0644658	173.418
0.113436	221.484
0.128854	247.711
0.135787	269.572
0.22206	297.2
0.33547	318.976
0.591624	331.892
1.02563	340.294
1.37117	345.85
1.90316	349.801
2.3202	349.47
2.84345	351.971
