Adsorption isotherm of Methane on CuBTC
DOI: 10.1016/j.energy.2014.08.033
Adsorbate Methane: InChIKey VNWKTOKETHGBQD-UHFFFAOYSA-N
Temperature: 130 K
Tabular data in the source: 0
pressure (bar)	uptake (g/g)
0.0284959	0.194202
0.0728396	0.231168
0.22304	0.305062
0.363767	0.316534
0.767941	0.311655
1.16343	0.316031
1.62041	0.318055
2.25316	0.322281
3.07042	0.324079
3.34288	0.328532
