Adsorption isotherm of Methane on CuBTC
DOI: 10.1016/j.energy.2014.08.033
Adsorbate Methane: InChIKey VNWKTOKETHGBQD-UHFFFAOYSA-N
Temperature: 140 K
Tabular data in the source: 0
pressure (bar)	uptake (g/g)
0.0394421	0.0274985
0.0546223	0.10331
0.151991	0.229236
2.53536	0.272123
4.22925	0.293419
5.3367	0.305579
6.28029	0.344999
