Adsorption isotherm of Methane on CuBTC
DOI: 10.1016/j.energy.2014.08.033
Adsorbate Methane: InChIKey VNWKTOKETHGBQD-UHFFFAOYSA-N
Temperature: 130 K
Tabular data in the source: 0
pressure (bar)	uptake (g/g)
0.0804842	0.127117
0.0895765	0.154857
0.142784	0.198754
0.143063	0.224187
0.152105	0.247303
0.231472	0.272687
0.363487	0.291101
0.618427	0.300189
1.04035	0.311484
1.41829	0.318182
1.9368	0.32248
2.35858	0.319903
2.87707	0.321888
