Adsorption isotherm of Methane on Maxsorb III
DOI: 10.1016/j.energy.2014.08.033
Adsorbate Methane: InChIKey VNWKTOKETHGBQD-UHFFFAOYSA-N
Temperature: 130 K
Tabular data in the source: 0
pressure (bar)	uptake (g/g)
0.00998119	0.108664
0.0110479	0.205773
0.019302	0.157213
0.0735	0.291283
0.126631	0.328244
0.347005	0.390533
0.532177	0.44822
0.752525	0.508197
1.01676	0.563522
1.36877	0.609543
3.20589	0.656942
3.50471	0.661378
3.62832	0.714479
3.65534	0.774578
