Adsorption isotherm of Methane on Fe-BTC
DOI: 10.1016/j.energy.2014.08.033
Adsorbate Methane: InChIKey VNWKTOKETHGBQD-UHFFFAOYSA-N
Temperature: 130 K
Tabular data in the source: 0
pressure (bar)	uptake (g/g)
0.0975007	0.0762392
0.519732	0.11528
1.77647	0.126049
2.83092	0.120761
3.55157	0.127244
3.60445	0.141084
