Adsorption isotherm of Methane on CuBTC
DOI: 10.1016/j.energy.2014.08.033
Adsorbate Methane: InChIKey VNWKTOKETHGBQD-UHFFFAOYSA-N
Temperature: 130 K
Tabular data in the source: 0
pressure (bar)	uptake (g/g)
0.0155568	0.0728
0.0278253	0.16229
0.0977012	0.260981
1.55568	0.30083
2.71859	0.320619
3.5112	0.334298
3.59382	0.397938
