Adsorption isotherm of Methane on Fe-BTC
DOI: 10.1016/j.energy.2014.08.033
Adsorbate Methane: InChIKey VNWKTOKETHGBQD-UHFFFAOYSA-N
Temperature: 130 K
Tabular data in the source: 0
pressure (bar)	uptake (cm3(STP)/cm3)
0.0150299	30.6003
0.089326	93.2236
0.501704	145.374
1.76939	157.488
2.82568	152.276
3.52614	157.551
3.57756	177.918
