Adsorption isotherm of Methane on CuBTC
DOI: 10.1016/j.energy.2014.08.033
Adsorbate Methane: InChIKey VNWKTOKETHGBQD-UHFFFAOYSA-N
Temperature: 125 K
Tabular data in the source: 0
pressure (bar)	uptake (g/g)
0.0120451	0.0227579
0.0312572	0.189581
0.0559075	0.242707
0.16681	0.292887
0.265609	0.302055
0.559081	0.309753
0.849753	0.314367
1.17681	0.315936
1.62975	0.317505
2.25702	0.319073
2.53536	0.323638
