Adsorption isotherm of Methane on CuBTC
DOI: 10.1016/j.energy.2014.08.033
Adsorbate Methane: InChIKey VNWKTOKETHGBQD-UHFFFAOYSA-N
Temperature: 298 K
Tabular data in the source: 0
pressure (bar)	uptake (g/g)
0.811131	0.0173898
2.47707	0.0357553
3.67838	0.0494567
5.59081	0.0677074
7.74264	0.0874579
8.69749	0.0995983
12.0451	0.125409
14.8498	0.145141
20.0923	0.169433
27.8253	0.192214
30.5387	0.199805
35.9385	0.208923
41.32	0.218036
46.4162	0.225631
54.6223	0.236264
62.8029	0.242348
