Adsorption isotherm of Methane on NJU-Bai9
DOI: 10.1002/anie.201302715
Adsorbate Methane: InChIKey VNWKTOKETHGBQD-UHFFFAOYSA-N
Temperature: 298 K
Tabular data in the source: 0
pressure (bar)	uptake (mmol/g)
0.670377	0.15564
5.04012	1.51757
10.109	2.71607
16.0519	4.40486
25.141	6.36603
34.9292	8.49064
40.3477	9.47123
50.4855	10.9966
59.3998	12.413
70.4116	13.7749
