Adsorption isotherm of Nitrogen on NJU-Bai9
DOI: 10.1002/anie.201302715
Adsorbate Nitrogen: InChIKey IJGRMHOSHXDMSA-UHFFFAOYSA-N
Temperature: 77 K
Tabular data in the source: 0
pressure (bar)	uptake (cm3(STP)/g)
0.00182509	17.1665
0.00619484	458.511
0.0367831	559.015
0.0498923	628.931
0.0739259	746.914
0.0957747	829.94
0.113254	930.444
0.165691	956.662
0.209388	969.772
0.301153	991.62
0.497791	1015.65
0.816783	1035.32
0.998128	1039.69
