Adsorption isotherm of Methane on NJU-Bai9
DOI: 10.1002/anie.201302715
Adsorbate Methane: InChIKey VNWKTOKETHGBQD-UHFFFAOYSA-N
Temperature: 273 K
Tabular data in the source: 0
pressure (bar)	uptake (mmol/g)
0.845167	0.373549
1.01996	1.89891
2.94265	5.71231
4.86533	8.5996
9.75945	14.6466
14.8284	17.9152
19.7225	20.0398
25.141	21.4017
30.2099	22.1099
34.5796	22.4368
39.8233	22.8726
49.9611	23.7987
60.2737	24.1801
70.062	24.5069
