Adsorption isotherm of Hydrogen on NJU-Bai9
DOI: 10.1002/anie.201302715
Adsorbate Hydrogen: InChIKey UFHFLCQGNIYNRP-UHFFFAOYSA-N
Temperature: 77 K
Tabular data in the source: 0
pressure (bar)	uptake (mg/g)
0.838	0.1497
1.7119	8.7103
3.4598	17.9698
5.4262	24.0845
10.2329	32.2957
15.2581	39.1092
20.2833	43.4769
25.527	48.0192
30.7707	52.3869
35.796	55.7063
40.6027	59.0257
49.5607	64.9658
60.0481	70.7311
70.9724	74.3999
80.3674	78.2434
90.6363	81.5629
98.9388	83.834
