Adsorption isotherm of Carbon Dioxide on NJU-Bai9
DOI: 10.1002/anie.201302715
Adsorbate Carbon Dioxide: InChIKey CURLTUGMZLYLDI-UHFFFAOYSA-N
Temperature: 273 K
Tabular data in the source: 0
pressure (bar)	uptake (mmol/g)
0.0730036	0.00921906
1.12174	0.178014
3.13183	0.520568
4.87973	0.82837
8.02594	1.2305
10.036	1.48866
11.9587	1.72199
13.9688	1.94539
15.8041	2.06454
17.9016	2.14398
19.8243	2.19859
22.8831	2.24823
26.2915	2.28298
29.8747	2.31774
