Adsorption isotherm of Carbon Dioxide on NJU-Bai9
DOI: 10.1002/anie.201302715
Adsorbate Carbon Dioxide: InChIKey CURLTUGMZLYLDI-UHFFFAOYSA-N
Temperature: 298 K
Tabular data in the source: 0
pressure (bar)	uptake (mmol/g)
0.247794	0.0141836
2.78225	0.242553
4.96712	0.416312
7.76376	0.674469
9.94863	0.843264
12.2209	0.982271
15.0175	1.18582
16.9402	1.3149
20.0864	1.49858
24.8058	1.75674
30.1369	1.9305
34.8562	2.02483
39.9251	2.07944
