Adsorption isotherm of Methanol on C32H46N4O8Zn
DOI: 10.1039/C2jm15604k
Adsorbate Methanol: InChIKey OKKJLVBELUTLKV-UHFFFAOYSA-N
Temperature: 298 K
Tabular data in the source: 0
pressure (bar)	uptake (cm3(STP)/g)
2.13e-05	5.28455
0.000456066	13.0081
0.00128453	18.2927
0.00171599	25.2033
0.0021376	29.6748
0.00255101	32.1138
0.00296771	35.3659
0.00379453	40.2439
0.00502164	44.3089
0.00624711	47.9675
0.008283	52.439
0.0115263	56.0976
0.013951	56.9106
0.0183919	57.3171
0.0212185	57.7236
0.0240468	58.5366
0.0264715	59.3496
0.0288945	59.7561
0.0313176	60.1626
0.0345494	60.9756
0.0373761	61.3821
0.040206	62.6016
0.0442433	63.0081
0.0478787	63.8211
0.051916	64.2276
0.0559533	64.6341
0.061203	65.4472
0.0668563	66.2602
0.0721059	67.0732
0.0793735	67.8862
0.0890657	69.5122
0.0939101	69.9187
0.0991615	71.1382
0.103604	71.9512
0.108047	72.7642
0.112489	73.5772
0.117739	74.3902
0.12299	75.6098
0.127434	76.8293
0.132687	78.4553
0.136729	80.0813
0.141182	83.3333
0.144824	85.7724
0.148881	91.0569
0.150915	95.122
0.152546	99.187
0.152956	100.813
