Adsorption isotherm of Ethanol on C32H46N4O8Zn
DOI: 10.1039/C2jm15604k
Adsorbate Ethanol: InChIKey LFQSCWFLJHTTHZ-UHFFFAOYSA-N
Temperature: 298 K
Tabular data in the source: 0
pressure (bar)	uptake (cm3(STP)/g)
0.0128193	0
0.0242199	0.406504
0.0541315	0.406504
0.0826188	0.406504
0.0968624	0.406504
0.109682	0.406504
0.129628	0.813008
0.142442	0.406504
0.159534	0.406504
0.172354	0.406504
0.186597	0.406504
0.202271	0.813008
0.216509	0.406504
0.232183	0.813008
0.246426	0.813008
0.26067	0.813008
0.274913	0.813008
0.290581	0.813008
0.304825	0.813008
0.320493	0.813008
0.333318	1.21951
0.348986	1.21951
0.363235	1.62602
0.376049	1.21951
0.394566	1.21951
0.410239	1.62602
0.423059	1.62602
0.448697	1.62602
0.47719	2.03252
0.490009	2.03252
0.504253	2.03252
