Adsorption isotherm of Water on C32H46N4O8Zn
DOI: 10.1039/C2jm15604k
Adsorbate Water: InChIKey XLYOFNOQVPJJNP-UHFFFAOYSA-N
Temperature: 298 K
Tabular data in the source: 0
pressure (bar)	uptake (cm3(STP)/g)
0.00120433	0.406504
0.00263441	0.813008
0.00406449	1.21951
0.00572032	1.62602
0.00730091	2.03252
0.00888149	2.43902
0.0104618	2.43902
0.0118166	2.84553
0.0132464	2.84553
0.0155795	3.25203
0.0169343	3.65854
0.0182894	4.47154
0.0194938	4.87805
0.0211496	5.28455
0.0224292	5.69106
0.0234833	6.50407
0.024613	7.72358
