Adsorption isotherm of Hydrogen on UiO-67
DOI: 10.1039/C1cp23434j
Adsorbate Hydrogen: InChIKey UFHFLCQGNIYNRP-UHFFFAOYSA-N
Temperature: 77 K
Tabular data in the source: 0
pressure (bar)	uptake (wt%)
1.33333	1.5288
1.55556	1.78869
2	2.07913
2.44444	2.35427
2.88889	2.55296
3.77778	2.88919
4.66667	3.11837
5.77778	3.31694
7.11111	3.63778
9.11111	4.00437
13.1111	4.26355
21.3333	4.47604
25.7778	4.53636
29.5556	4.58151
34.4444	4.56528
37.7778	4.57994
42.6667	4.56371
45.5556	4.56316
50.6667	4.54689
54.6667	4.51555
58	4.48433
61.5556	4.45307
70.6667	4.31371
74.6667	4.26707
78.6667	4.17457
81.5556	4.15872
