Adsorption isotherm of Nitrogen on UiO-66
DOI: 10.1039/C1cp23434j
Adsorbate Nitrogen: InChIKey IJGRMHOSHXDMSA-UHFFFAOYSA-N
Temperature: 77 K
Tabular data in the source: 0
pressure (bar)	uptake (mmol/g)
0.00472759	211.584
0.0141828	245.198
0.0330931	272.129
0.0638225	272.236
0.104007	279.091
0.139464	282.572
0.172557	289.402
0.198559	286.134
0.243471	286.289
0.295474	296.544
0.34275	293.349
0.39239	293.521
0.439666	300.4
0.536582	297.377
0.57913	300.882
0.635861	307.795
0.678409	304.584
0.725685	308.105
0.791872	318.409
0.841511	315.222
0.881696	315.361
0.914789	328.908
0.95261	355.905
0.969156	822.753
