Adsorption isotherm of Hydrogen on UiO-66
DOI: 10.1039/C1cp23434j
Adsorbate Hydrogen: InChIKey UFHFLCQGNIYNRP-UHFFFAOYSA-N
Temperature: 77 K
Tabular data in the source: 0
pressure (bar)	uptake (wt%)
0.444444	0.444444
0.888889	0.718485
1.11111	1.116
1.77778	1.36052
2.44444	1.55917
3.77778	1.75769
4.88889	1.8798
7.33333	2.07811
9.33333	2.16947
13.1111	2.29107
17.5556	2.36668
22.2222	2.41165
26.6667	2.4261
31.1111	2.44054
35.5556	2.43969
40.2222	2.4235
44.2222	2.40745
48.6667	2.36073
53.3333	2.35984
57.7778	2.31312
62	2.29702
66.2222	2.26563
70.8889	2.21887
74.8889	2.2181
79.3333	2.18667
84.2222	2.15516
