Adsorption isotherm of Nitrogen on UiO-67
DOI: 10.1039/C1cp23434j
Adsorbate Nitrogen: InChIKey IJGRMHOSHXDMSA-UHFFFAOYSA-N
Temperature: 77 K
Tabular data in the source: 0
pressure (bar)	uptake (mmol/g)
0.0023638	0.0023638
0.00472759	141.061
0.00709139	473.532
0.0212742	507.163
0.0354569	524.003
0.0685501	537.55
0.0992794	551.089
0.122917	554.529
0.153647	554.636
0.196195	561.499
0.248199	561.679
0.295474	561.842
0.338023	565.348
0.385299	568.869
0.432575	565.674
0.486942	565.862
0.52949	569.368
0.586221	572.922
0.638225	576.46
0.683137	576.615
0.730413	576.779
0.789508	583.699
0.83442	590.571
0.876968	594.076
0.917153	604.29
0.936063	611.071
0.947882	634.62
0.962065	664.893
0.969156	701.858
