Adsorption isotherm of Hydrogen on Activated Charcoal
DOI: 10.1016/0011-2275(84)90001-8
Adsorbate Hydrogen: InChIKey UFHFLCQGNIYNRP-UHFFFAOYSA-N
Temperature: 110 K
Tabular data in the source: 0
pressure (bar)	uptake (cm3(STP)/g)
1.93674	81.1899
3.18326	112.706
5.24006	154.722
7.65391	177.627
10.0583	195.754
12.6488	208.148
16.0232	217.667
17.2357	231.985
20.2135	240.553
