Adsorption isotherm of Neon on Activated Charcoal
DOI: 10.1016/0011-2275(84)90001-8
Adsorbate Neon: InChIKey GKAOGPIIYCISHV-UHFFFAOYSA-N
Temperature: 110 K
Tabular data in the source: 0
pressure (bar)	uptake (cm3(STP)/g)
0.792451	9.62954
2.37419	24.0655
3.55908	32.7221
4.74649	45.2372
6.12727	52.925
7.89986	58.6753
16.5783	105.759
19.1395	115.351
21.8973	124.939
24.4573	132.602
26.2349	146.069
27.0173	140.264
27.6138	150.863
28.5933	146.019
