Adsorption isotherm of Hydrogen on Activated Charcoal
DOI: 10.1016/0011-2275(84)90001-8
Adsorbate Hydrogen: InChIKey UFHFLCQGNIYNRP-UHFFFAOYSA-N
Temperature: 90 K
Tabular data in the source: 0
pressure (bar)	uptake (cm3(STP)/g)
0.0578484	87.541
0.874876	123.934
1.50081	171.148
3.30516	201.639
3.91809	229.18
5.12121	249.836
5.91289	247.869
6.91776	268.525
7.71854	280.328
8.51022	278.361
9.90963	296.066
