Adsorption isotherm of Nitrogen on Activated Charcoal
DOI: 10.1016/0011-2275(84)90001-8
Adsorbate Nitrogen: InChIKey IJGRMHOSHXDMSA-UHFFFAOYSA-N
Temperature: 330 K
Tabular data in the source: 0
pressure (bar)	uptake (cm3(STP)/g)
2.98015	6.6365
6.15897	16.1513
9.73515	25.6536
15.4968	37.0098
21.6557	49.315
34.5697	67.1757
47.0863	71.5875
52.4506	76.2255
60.0003	76.9482
