Adsorption isotherm of Nitrogen on Activated Charcoal
DOI: 10.1016/0011-2275(84)90001-8
Adsorbate Nitrogen: InChIKey IJGRMHOSHXDMSA-UHFFFAOYSA-N
Temperature: 240 K
Tabular data in the source: 0
pressure (bar)	uptake (cm3(STP)/g)
0.198676	17.3014
1.39074	29.7637
2.38412	46.0784
4.56956	60.4324
5.96029	72.8884
7.54971	80.5304
10.1325	91.9872
13.51	97.6496
16.8875	111.966
28.2121	131.8
31.7882	133.61
