Adsorption isotherm of Hydrogen on Activated Charcoal
DOI: 10.1016/0011-2275(84)90001-8
Adsorbate Hydrogen: InChIKey UFHFLCQGNIYNRP-UHFFFAOYSA-N
Temperature: 130 K
Tabular data in the source: 0
pressure (bar)	uptake (cm3(STP)/g)
0.870619	41.0737
5.92775	103.123
10.5373	138.425
14.5208	156.536
18.2937	167.961
21.8692	179.389
22.6568	178.425
26.0312	187.944
28.4205	198.428
32.9773	206.979
