Adsorption isotherm of Nitrogen on Activated Charcoal
DOI: 10.1016/0011-2275(84)90001-8
Adsorbate Nitrogen: InChIKey IJGRMHOSHXDMSA-UHFFFAOYSA-N
Temperature: 150 K
Tabular data in the source: 0
pressure (bar)	uptake (cm3(STP)/g)
0.198676	139.417
0.596029	152.866
1.39074	182.648
3.57618	202.771
4.96691	216.189
