Adsorption isotherm of Neon on Activated Charcoal
DOI: 10.1016/0011-2275(84)90001-8
Adsorbate Neon: InChIKey GKAOGPIIYCISHV-UHFFFAOYSA-N
Temperature: 150 K
Tabular data in the source: 0
pressure (bar)	uptake (cm3(STP)/g)
3.15084	9.57964
5.51366	16.2821
7.87522	21.0553
10.4333	25.8243
13.1886	31.5538
16.3362	36.3103
32.8614	61.0411
38.171	65.7519
42.8922	72.4045
47.2178	75.2069
50.7592	80.9197
51.5428	77.0446
53.3173	85.6887
54.099	78.9198
56.6571	83.6888
