Adsorption isotherm of Hydrogen on Activated Charcoal
DOI: 10.1016/0011-2275(84)90001-8
Adsorbate Hydrogen: InChIKey UFHFLCQGNIYNRP-UHFFFAOYSA-N
Temperature: 150 K
Tabular data in the source: 0
pressure (bar)	uptake (cm3(STP)/g)
1.64883	35.333
5.46321	67.7772
9.85277	91.6165
16.6185	119.253
22.1753	134.481
27.5273	145.89
32.084	154.441
40.5922	164.861
40.6017	169.638
45.3502	175.321
