Adsorption isotherm of Neon on Activated Charcoal
DOI: 10.1016/0011-2275(84)90001-8
Adsorbate Neon: InChIKey GKAOGPIIYCISHV-UHFFFAOYSA-N
Temperature: 130 K
Tabular data in the source: 0
pressure (bar)	uptake (cm3(STP)/g)
1.38079	7.68783
3.74739	20.178
5.32471	27.8616
7.68816	35.5287
9.46012	40.3143
11.4305	47.9897
24.6184	78.5789
28.556	89.1065
32.4898	93.8464
36.6221	101.476
38.5937	111.081
39.3761	105.276
40.5616	114.898
41.737	109.085
