Adsorption isotherm of Neon on Activated Charcoal
DOI: 10.1016/0011-2275(84)90001-8
Adsorbate Neon: InChIKey GKAOGPIIYCISHV-UHFFFAOYSA-N
Temperature: 77 K
Tabular data in the source: 0
pressure (bar)	uptake (cm3(STP)/g)
0.257405	45.1869
0.891409	75.9427
1.51654	99.968
1.92864	112.459
2.34962	131.681
3.15987	146.087
8.03282	241.177
