Adsorption isotherm of Nitrogen on Activated Charcoal
DOI: 10.1016/0011-2275(84)90001-8
Adsorbate Nitrogen: InChIKey IJGRMHOSHXDMSA-UHFFFAOYSA-N
Temperature: 180 K
Tabular data in the source: 0
pressure (bar)	uptake (cm3(STP)/g)
0.710465	84.0615
0.747323	111.768
2.76433	127.968
3.98445	145.139
5.99765	158.473
7.80877	169.9
8.41628	176.575
9.21826	179.425
