Adsorption isotherm of Hydrogen on Activated Charcoal
DOI: 10.1016/0011-2275(84)90001-8
Adsorbate Hydrogen: InChIKey UFHFLCQGNIYNRP-UHFFFAOYSA-N
Temperature: 110 K
Tabular data in the source: 0
pressure (bar)	uptake (cm3(STP)/g)
0.240493	63.9344
1.24407	82.623
2.65518	118.033
5.26226	163.279
7.85568	187.869
10.0526	212.459
12.4433	230.164
13.4325	227.213
16.4185	245.902
16.817	248.852
17.6165	258.689
19.8056	271.475
