Adsorption isotherm of Nitrogen on Activated Charcoal
DOI: 10.1016/0011-2275(84)90001-8
Adsorbate Nitrogen: InChIKey IJGRMHOSHXDMSA-UHFFFAOYSA-N
Temperature: 390 K
Tabular data in the source: 0
pressure (bar)	uptake (cm3(STP)/g)
1.98676	2.82177
6.755	10.3632
10.7285	15.0452
14.5034	20.6951
19.0729	26.3198
23.4438	30.9892
27.8147	33.7355
31.1922	35.5518
35.7618	39.2534
40.9274	41.0131
46.2916	42.7665
50.6625	44.5513
52.4506	46.4178
55.8281	44.3879
