Adsorption isotherm of Hydrogen on Activated Charcoal
DOI: 10.1016/0011-2275(84)90001-8
Adsorbate Hydrogen: InChIKey UFHFLCQGNIYNRP-UHFFFAOYSA-N
Temperature: 190 K
Tabular data in the source: 0
pressure (bar)	uptake (cm3(STP)/g)
4.60202	31.4804
12.1422	51.4651
19.8721	67.6262
30.7734	90.4419
39.2778	98.9515
47.1901	107.467
53.9124	113.129
62.2119	117.82
65.9735	123.513
66.1614	118.734
73.0754	121.527
