Adsorption isotherm of Nitrogen on Activated Charcoal
DOI: 10.1016/0011-2275(84)90001-8
Adsorbate Nitrogen: InChIKey IJGRMHOSHXDMSA-UHFFFAOYSA-N
Temperature: 360 K
Tabular data in the source: 0
pressure (bar)	uptake (cm3(STP)/g)
4.76824	9.46456
8.34441	18.0053
14.9007	26.4517
20.6624	33.9618
26.8213	40.4977
30.3975	47.1154
34.1724	48.9191
39.5366	52.5955
43.1128	57.2901
47.4837	58.1134
50.6625	57.0513
54.4374	58.855
57.2188	60.69
63.9738	60.4764
69.5368	61.2619
74.1063	64.9635
75.8944	63.9454
