Adsorption isotherm of Neon on Activated Charcoal
DOI: 10.1016/0011-2275(84)90001-8
Adsorbate Neon: InChIKey GKAOGPIIYCISHV-UHFFFAOYSA-N
Temperature: 170 K
Tabular data in the source: 0
pressure (bar)	uptake (cm3(STP)/g)
2.75588	6.69411
6.10137	13.3757
9.64148	17.1594
13.5747	20.9347
16.3287	24.7349
20.0653	28.5144
40.9104	47.366
47.0055	51.0956
53.0993	52.8959
62.7344	60.4091
63.3215	56.5382
65.6849	64.2052
66.4673	58.4009
