Adsorption isotherm of Neon on Activated Charcoal
DOI: 10.1016/0011-2275(84)90001-8
Adsorbate Neon: InChIKey GKAOGPIIYCISHV-UHFFFAOYSA-N
Temperature: 170 K
Tabular data in the source: 0
pressure (bar)	uptake (cm3(STP)/g)
2.5842	9.56089
6.75467	21.9729
9.73068	28.641
13.1061	38.1852
16.6794	47.7252
20.2501	55.3422
40.8793	98.1764
47.2244	109.581
52.7782	121.002
62.4962	140.028
63.2824	136.165
66.0581	140.915
66.0657	146.684
