Adsorption isotherm of Neon on Activated Charcoal
DOI: 10.1016/0011-2275(84)90001-8
Adsorbate Neon: InChIKey GKAOGPIIYCISHV-UHFFFAOYSA-N
Temperature: 90 K
Tabular data in the source: 0
pressure (bar)	uptake (cm3(STP)/g)
0.406968	21.2133
1.39406	27.9448
1.79597	41.4411
1.80482	54.9457
2.5979	65.5399
3.78468	77.0903
8.34475	137.766
9.72996	152.206
11.9019	167.594
12.8922	179.148
13.8824	190.703
14.8708	199.364
15.0604	188.749
15.6556	197.418
