Adsorption isotherm of Nitrogen on Activated Charcoal
DOI: 10.1016/0011-2275(84)90001-8
Adsorbate Nitrogen: InChIKey IJGRMHOSHXDMSA-UHFFFAOYSA-N
Temperature: 390 K
Tabular data in the source: 0
pressure (bar)	uptake (cm3(STP)/g)
2.60419	7.58874
5.6062	14.2137
8.80647	19.8792
12.008	26.5
15.4078	32.1612
19.6058	37.8057
24.2041	44.3973
28.4008	49.0864
32.1972	52.8285
37.1933	58.4563
42.3903	65.0353
47.7842	69.6994
52.9773	73.4122
