Adsorption isotherm of Neon on Activated Charcoal
DOI: 10.1016/0011-2275(84)90001-8
Adsorbate Neon: InChIKey GKAOGPIIYCISHV-UHFFFAOYSA-N
Temperature: 77 K
Tabular data in the source: 0
pressure (bar)	uptake (cm3(STP)/g)
0.20854	18.3236
0.41392	31.824
0.617404	42.4307
2.02789	95.4555
2.04874	127.288
2.43044	109.916
3.43332	140.763
8.40478	229.404
9.38997	233.242
