Adsorption isotherm of Hydrogen on Activated Charcoal
DOI: 10.1016/0011-2275(84)90001-8
Adsorbate Hydrogen: InChIKey UFHFLCQGNIYNRP-UHFFFAOYSA-N
Temperature: 150 K
Tabular data in the source: 0
pressure (bar)	uptake (cm3(STP)/g)
0.412089	23.6066
2.20734	40.3279
5.60025	74.7541
10.1794	104.262
17.1413	139.672
22.31	161.311
27.2791	180.984
32.4426	194.754
38.0025	208.525
40.5862	218.361
41.3759	213.443
45.9453	228.197
47.5325	230.164
