Adsorption isotherm of Nitrogen on Activated Charcoal
DOI: 10.1016/0011-2275(84)90001-8
Adsorbate Nitrogen: InChIKey IJGRMHOSHXDMSA-UHFFFAOYSA-N
Temperature: 300 K
Tabular data in the source: 0
pressure (bar)	uptake (cm3(STP)/g)
1.00914	8.57758
5.42699	29.5041
9.23605	42.8001
12.2444	54.202
16.45	65.5789
22.6561	80.7355
28.4606	93.9896
34.4646	107.24
37.6598	109.083
41.6607	116.643
45.2575	120.389
49.6563	126.985
53.4539	131.682
