Adsorption isotherm of Hydrogen on Activated Charcoal
DOI: 10.1016/0011-2275(84)90001-8
Adsorbate Hydrogen: InChIKey UFHFLCQGNIYNRP-UHFFFAOYSA-N
Temperature: 170 K
Tabular data in the source: 0
pressure (bar)	uptake (cm3(STP)/g)
3.22601	34.3611
8.80363	60.0988
14.7666	81.0555
23.8914	103.89
30.6251	115.284
36.9639	126.683
42.7012	133.311
50.0138	138.011
62.6651	147.433
