Adsorption isotherm of Neon on Activated Charcoal
DOI: 10.1016/0011-2275(84)90001-8
Adsorbate Neon: InChIKey GKAOGPIIYCISHV-UHFFFAOYSA-N
Temperature: 110 K
Tabular data in the source: 0
pressure (bar)	uptake (cm3(STP)/g)
2.2114	26.8764
3.81163	40.3042
4.225	53.7571
6.2107	59.4844
7.41277	70.9975
16.001	133.316
18.7931	150.565
21.1846	163.976
24.7642	178.324
26.164	189.833
26.7524	185.974
27.7554	196.53
28.7381	191.702
