Adsorption isotherm of Hydrogen on Activated Charcoal
DOI: 10.1016/0011-2275(84)90001-8
Adsorbate Hydrogen: InChIKey UFHFLCQGNIYNRP-UHFFFAOYSA-N
Temperature: 170 K
Tabular data in the source: 0
pressure (bar)	uptake (cm3(STP)/g)
0.603833	13.7705
2.99707	35.4098
8.56937	67.8689
14.5349	95.4098
23.2804	129.836
30.6278	148.525
36.9853	169.18
42.9391	179.016
49.8868	192.787
53.2615	199.672
59.0184	211.475
61.1991	211.475
