Adsorption isotherm of Nitrogen on Activated Charcoal
DOI: 10.1016/0011-2275(84)90001-8
Adsorbate Nitrogen: InChIKey IJGRMHOSHXDMSA-UHFFFAOYSA-N
Temperature: 360 K
Tabular data in the source: 0
pressure (bar)	uptake (cm3(STP)/g)
1.60395	5.69888
7.20887	18.9572
16.614	38.8238
20.817	48.2899
27.412	55.795
34.4125	68.0687
40.6109	77.493
43.8086	81.2476
51.4014	88.7319
57.9925	93.3708
64.585	98.9652
74.7679	103.529
