Adsorption isotherm of Neon on Activated Charcoal
DOI: 10.1016/0011-2275(84)90001-8
Adsorbate Neon: InChIKey GKAOGPIIYCISHV-UHFFFAOYSA-N
Temperature: 190 K
Tabular data in the source: 0
pressure (bar)	uptake (cm3(STP)/g)
3.17636	8.58686
7.93645	18.1019
11.904	26.672
16.0694	35.238
20.0358	42.8467
23.9996	48.5324
48.3871	91.2873
56.1194	104.586
63.0516	111.17
74.1556	131.129
77.3243	133.946
79.9009	137.738
