Adsorption isotherm of Nitrogen on Activated Charcoal
DOI: 10.1016/0011-2275(84)90001-8
Adsorbate Nitrogen: InChIKey IJGRMHOSHXDMSA-UHFFFAOYSA-N
Temperature: 210 K
Tabular data in the source: 0
pressure (bar)	uptake (cm3(STP)/g)
0.448648	37.2517
0.866793	51.5742
1.8861	67.7949
2.50379	82.1131
3.51674	93.5569
5.13467	109.765
9.35933	135.473
12.5685	147.826
16.3788	162.077
17.5824	166.829
22.9916	182.958
