Adsorption isotherm of Hydrogen on Activated Charcoal
DOI: 10.1016/0011-2275(84)90001-8
Adsorbate Hydrogen: InChIKey UFHFLCQGNIYNRP-UHFFFAOYSA-N
Temperature: 90 K
Tabular data in the source: 0
pressure (bar)	uptake (cm3(STP)/g)
0.165952	84.0747
1.02903	121.327
2.10834	168.131
3.14617	193.916
3.98662	219.703
5.00936	237.846
5.18223	225.423
5.78758	232.105
7.20508	250.243
7.63191	266.481
8.21462	261.697
9.6359	281.746
