Adsorption isotherm of Neon on Activated Charcoal
DOI: 10.1016/0011-2275(84)90001-8
Adsorbate Neon: InChIKey GKAOGPIIYCISHV-UHFFFAOYSA-N
Temperature: 90 K
Tabular data in the source: 0
pressure (bar)	uptake (cm3(STP)/g)
0.635271	31.7174
1.64207	45.1577
1.66109	59.5804
3.25878	71.0851
3.67088	83.5764
7.91363	150.795
9.72181	171.91
11.7176	185.33
13.1264	203.569
13.9316	214.129
14.7368	224.689
14.9194	213.147
15.3277	222.754
