Adsorption isotherm of Neon on Activated Charcoal
DOI: 10.1016/0011-2275(84)90001-8
Adsorbate Neon: InChIKey GKAOGPIIYCISHV-UHFFFAOYSA-N
Temperature: 130 K
Tabular data in the source: 0
pressure (bar)	uptake (cm3(STP)/g)
3.39572	24.9284
5.58684	36.4206
7.3798	45.9982
9.57091	57.4905
11.5591	65.1409
24.2887	117.757
28.4604	131.131
32.4343	144.508
36.6035	155.959
38.5969	167.455
39.3843	164.554
40.7816	174.14
41.5691	171.239
