Adsorption isotherm of Nitrogen on Activated Charcoal
DOI: 10.1016/0011-2275(84)90001-8
Adsorbate Nitrogen: InChIKey IJGRMHOSHXDMSA-UHFFFAOYSA-N
Temperature: 330 K
Tabular data in the source: 0
pressure (bar)	uptake (cm3(STP)/g)
1.00406	4.75603
3.20917	12.3531
9.02126	31.3396
12.6257	40.8182
16.2289	49.3415
21.4334	61.6528
26.4347	71.1021
31.4359	80.5515
35.2373	88.1151
40.6313	92.7792
44.2306	98.4363
47.4271	101.236
53.0231	107.806
57.8184	112.483
61.813	115.265
