Adsorption isotherm of Neon on Activated Charcoal
DOI: 10.1016/0011-2275(84)90001-8
Adsorbate Neon: InChIKey GKAOGPIIYCISHV-UHFFFAOYSA-N
Temperature: 190 K
Tabular data in the source: 0
pressure (bar)	uptake (cm3(STP)/g)
1.77069	2.85643
3.93445	5.70454
7.6711	9.48401
12.1951	15.1761
15.9312	17.9909
19.2741	20.8141
20.2549	17.8995
24.3852	22.6352
48.7635	34.6597
55.8412	38.3685
62.524	39.1917
73.7295	43.7778
77.4643	44.6634
