Adsorption isotherm of Nitrogen on Activated Charcoal
DOI: 10.1016/0011-2275(84)90001-8
Adsorbate Nitrogen: InChIKey IJGRMHOSHXDMSA-UHFFFAOYSA-N
Temperature: 270 K
Tabular data in the source: 0
pressure (bar)	uptake (cm3(STP)/g)
0.993382	14.3917
7.74838	55.5241
10.3312	63.1347
13.1126	72.6621
20.265	87.8205
26.2253	96.2858
31.9869	106.68
37.1525	109.402
38.1459	115.14
