Adsorption isotherm of Nitrogen on Activated Charcoal
DOI: 10.1016/0011-2275(84)90001-8
Adsorbate Nitrogen: InChIKey IJGRMHOSHXDMSA-UHFFFAOYSA-N
Temperature: 240 K
Tabular data in the source: 0
pressure (bar)	uptake (cm3(STP)/g)
0.4245	19.0994
1.64081	33.4051
2.85584	46.7554
4.47377	62.9636
6.08662	75.3502
8.09727	86.773
10.5096	100.098
13.7136	108.63
17.726	124.788
20.9301	133.319
23.3348	140.912
28.7389	153.219
30.1357	153.19
