Adsorption isotherm of Nitrogen on Activated Charcoal
DOI: 10.1016/0011-2275(84)90001-8
Adsorbate Nitrogen: InChIKey IJGRMHOSHXDMSA-UHFFFAOYSA-N
Temperature: 300 K
Tabular data in the source: 0
pressure (bar)	uptake (cm3(STP)/g)
1.98676	8.591
5.96029	23.8499
12.3179	46.7257
16.0928	55.2602
22.6491	70.4374
28.6094	75.0566
33.9737	85.4638
37.1525	85.3632
41.3247	89.0774
49.2718	95.5568
