Adsorption isotherm of Nitrogen on Activated Charcoal
DOI: 10.1016/0011-2275(84)90001-8
Adsorbate Nitrogen: InChIKey IJGRMHOSHXDMSA-UHFFFAOYSA-N
Temperature: 180 K
Tabular data in the source: 0
pressure (bar)	uptake (cm3(STP)/g)
0.198676	67.3014
0.397353	79.7951
0.993382	99.9686
3.57618	126.81
7.54971	147.838
12.1193	162.117
