Adsorption isotherm of Nitrogen on Activated Charcoal
DOI: 10.1016/0011-2275(84)90001-8
Adsorbate Nitrogen: InChIKey IJGRMHOSHXDMSA-UHFFFAOYSA-N
Temperature: 270 K
Tabular data in the source: 0
pressure (bar)	uptake (cm3(STP)/g)
0.615144	12.4075
3.03251	29.5543
5.44733	44.7903
8.2625	60.9734
11.07	71.4241
13.2764	79.9766
20.4904	102.755
26.8909	114.086
37.6953	135.834
38.5011	141.55
40.4978	142.464
