Adsorption isotherm of Nitrogen on Activated Charcoal
DOI: 10.1016/0011-2275(84)90001-8
Adsorbate Nitrogen: InChIKey IJGRMHOSHXDMSA-UHFFFAOYSA-N
Temperature: 150 K
Tabular data in the source: 0
pressure (bar)	uptake (cm3(STP)/g)
0.402894	152.858
1.42093	168.123
1.84162	184.356
3.86752	207.244
4.88048	218.688
