Adsorption isotherm of Neon on Activated Charcoal
DOI: 10.1016/0011-2275(84)90001-8
Adsorbate Neon: InChIKey GKAOGPIIYCISHV-UHFFFAOYSA-N
Temperature: 150 K
Tabular data in the source: 0
pressure (bar)	uptake (cm3(STP)/g)
1.99077	9.5734
4.97693	23.9335
7.7564	31.5672
10.1453	43.0553
13.3204	50.6806
16.1011	59.2758
32.9758	105.074
37.7422	119.396
42.7039	131.792
47.8596	141.298
50.246	150.863
51.8247	147.946
53.4199	157.527
54.2098	156.549
