Adsorption isotherm of Nitrogen on Activated Charcoal
DOI: 10.1016/0011-2275(84)90001-8
Adsorbate Nitrogen: InChIKey IJGRMHOSHXDMSA-UHFFFAOYSA-N
Temperature: 210 K
Tabular data in the source: 0
pressure (bar)	uptake (cm3(STP)/g)
0.397353	28.8336
1.19206	48.0392
1.78809	66.2896
2.58279	79.726
3.57618	91.233
5.16559	103.683
9.73515	127.577
15.6954	148.542
17.0862	150.421
20.265	158.974
