Adsorption isotherm of Hydrogen on Activated Charcoal
DOI: 10.1016/0011-2275(84)90001-8
Adsorbate Hydrogen: InChIKey UFHFLCQGNIYNRP-UHFFFAOYSA-N
Temperature: 130 K
Tabular data in the source: 0
pressure (bar)	uptake (cm3(STP)/g)
0.425088	43.2787
3.02567	78.6885
5.82319	112.131
10.6071	151.475
14.3893	175.082
17.9714	195.738
22.1455	212.459
22.7383	209.508
26.3184	227.213
28.5056	237.049
32.2794	247.869
