Adsorption isotherm of Hydrogen on Activated Charcoal
DOI: 10.1016/0011-2275(84)90001-8
Adsorbate Hydrogen: InChIKey UFHFLCQGNIYNRP-UHFFFAOYSA-N
Temperature: 190 K
Tabular data in the source: 0
pressure (bar)	uptake (cm3(STP)/g)
0.800128	10.8197
4.78062	34.4262
11.9363	62.9508
19.2882	88.5246
24.6519	105.246
30.6109	122.951
39.1471	140.656
46.8871	153.443
54.033	167.213
61.7698	175.082
66.1396	187.869
72.8845	194.754
