Adsorption isotherm of Carbon Dioxide on IRMOF-1
DOI: 10.1016/j.micromeso.2008.04.033
Adsorbate Carbon Dioxide: InChIKey CURLTUGMZLYLDI-UHFFFAOYSA-N
Temperature: 298 K
Tabular data in the source: 0
pressure (bar)	uptake (cm3(STP)/g)
0.0127495	1.02999
0.111069	4.56949
0.248716	9.02663
0.388548	13.6149
0.530565	17.9409
0.633254	21.0871
0.738128	24.2334
0.853926	27.1174
0.930396	29.346
1.01342	31.4434
