Adsorption isotherm of Nitrogen on IRMOF-1
DOI: 10.1016/j.micromeso.2008.04.033
Adsorbate Nitrogen: InChIKey IJGRMHOSHXDMSA-UHFFFAOYSA-N
Temperature: 298 K
Tabular data in the source: 0
pressure (bar)	uptake (cm3(STP)/g)
0.00182509	12.7968
0.00837971	406.074
0.0171192	711.956
0.0477074	760.024
0.1788	799.351
0.246531	812.461
0.355775	825.57
0.696615	836.494
0.832077	836.494
0.980649	840.864
