Adsorption isotherm of Carbon Dioxide on IRMOF-1
DOI: 10.1016/j.micromeso.2008.04.033
Adsorbate Carbon Dioxide: InChIKey CURLTUGMZLYLDI-UHFFFAOYSA-N
Temperature: 273 K
Tabular data in the source: 0
pressure (bar)	uptake (ml/g)
0.111069	5.74932
0.244346	12.9594
0.34485	18.5964
0.447539	23.8401
0.526195	28.035
0.61796	32.6233
0.727203	37.0804
0.834262	41.6686
0.915102	44.946
0.993758	48.0922
