Adsorption isotherm of Carbon Dioxide on IRMOF-1
DOI: 10.1016/j.micromeso.2008.04.033
Adsorbate Carbon Dioxide: InChIKey CURLTUGMZLYLDI-UHFFFAOYSA-N
Temperature: 298 K
Tabular data in the source: 0
pressure (bar)	uptake (cm3(STP)/g)
0.0498923	1.94764
0.172245	5.88041
0.301153	9.551
0.414766	12.435
0.539304	15.9745
0.661657	19.1207
0.768716	22.0048
0.856111	24.1023
0.941321	25.8065
1.01561	27.6418
