Adsorption isotherm of Carbon Dioxide on Zeolite 13X
DOI: 10.1016/j.micromeso.2008.04.033
Adsorbate Carbon Dioxide: InChIKey CURLTUGMZLYLDI-UHFFFAOYSA-N
Temperature: 298 K
Tabular data in the source: 0
pressure (bar)	uptake (mg/g)
0.422583	196.326
1.03435	231.284
2.86964	270.612
5.75368	283.721
9.77384	288.091
12.0461	292.461
17.8142	292.461
24.194	294.646
31.8848	294.646
41.9352	296.83
