Adsorption isotherm of Carbon Dioxide on IRMOF-1
DOI: 10.1016/j.micromeso.2008.04.033
Adsorbate Carbon Dioxide: InChIKey CURLTUGMZLYLDI-UHFFFAOYSA-N
Temperature: 273 K
Tabular data in the source: 0
pressure (bar)	uptake (ml/g)
0.0127495	1.55436
0.100144	5.22495
0.176615	9.68209
0.270565	16.1056
0.35796	21.3493
0.478128	28.4283
0.60922	35.2451
0.70317	39.9644
0.851741	46.5191
1.01124	53.2048
