Adsorption isotherm of Carbon Dioxide on IRMOF-1
DOI: 10.1016/j.micromeso.2008.04.033
Adsorbate Carbon Dioxide: InChIKey CURLTUGMZLYLDI-UHFFFAOYSA-N
Temperature: 298 K
Tabular data in the source: 0
pressure (bar)	uptake (mg/g)
1.20914	56.4942
4.79233	167.923
8.02594	277.167
12.0461	414.814
16.1537	502.209
19.9991	545.906
26.0293	576.494
31.8848	596.158
37.915	600.528
41.9352	604.898
