Adsorption isotherm of Carbon Dioxide on IRMOF-1
DOI: 10.1016/j.micromeso.2008.04.033
Adsorbate Carbon Dioxide: InChIKey CURLTUGMZLYLDI-UHFFFAOYSA-N
Temperature: 298 K
Tabular data in the source: 0
pressure (bar)	uptake (mg/g)
0.422583	25.906
6.10326	235.654
9.94863	438.847
11.8713	537.167
13.8814	607.082
15.9789	672.629
20.1738	735.99
30.0495	797.167
42.0226	810.276
