Adsorption isotherm of Carbon Dioxide on IRMOF-1
DOI: 10.1016/j.micromeso.2008.04.033
Adsorbate Carbon Dioxide: InChIKey CURLTUGMZLYLDI-UHFFFAOYSA-N
Temperature: 298 K
Tabular data in the source: 0
pressure (bar)	uptake (mg/g)
0.0730036	0
1.99569	84.8976
5.05452	196.326
7.93855	342.713
10.1234	460.696
12.2209	569.94
16.2411	701.032
20.0864	764.393
29.8747	827.755
42.11	836.494
