Adsorption isotherm of Nitrogen on HNUST-1
DOI: 10.1039/C3ce26177h
Adsorbate Nitrogen: InChIKey IJGRMHOSHXDMSA-UHFFFAOYSA-N
Temperature: 273 K
Tabular data in the source: 0
pressure (bar)	uptake (cm3(STP)/g)
0.00837971	-0.10937
0.0477074	0.655336
0.113254	2.18475
0.156951	2.18475
0.246531	2.94945
0.338296	2.94945
0.447539	4.47887
0.563338	4.47887
0.666027	6.00828
0.777455	6.77298
0.87359	8.30239
0.936951	8.30239
0.995943	9.83181
1.04838	10.5965
