Adsorption isotherm of Carbon Dioxide on HNUST-1
DOI: 10.1039/C3ce26177h
Adsorbate Carbon Dioxide: InChIKey CURLTUGMZLYLDI-UHFFFAOYSA-N
Temperature: 273 K
Tabular data in the source: 0
pressure (bar)	uptake (cm3(STP)/g)
0.00619484	-0.10937
0.021489	12.1259
0.0695562	32.0083
0.111069	45.773
0.161321	58.0083
0.224682	72.5377
0.301153	85.5377
0.360144	95.4789
0.454094	106.949
0.530565	116.891
0.60922	124.538
0.666027	130.655
0.733758	138.302
0.810228	144.42
0.897623	150.538
0.956615	155.126
1.05275	159.714
