Adsorption isotherm of Methane on HNUST-1
DOI: 10.1039/C3ce26177h
Adsorbate Methane: InChIKey VNWKTOKETHGBQD-UHFFFAOYSA-N
Temperature: 273 K
Tabular data in the source: 0
pressure (bar)	uptake (wt%)
0.130092	0.967569
0.267739	2.27849
0.818327	3.69866
1.50656	5.11883
2.65362	6.32051
4.07597	7.63143
5.22303	8.17765
6.50774	9.0516
7.83833	9.48858
9.58186	10.0348
11.2795	10.581
13.2524	10.7995
14.6748	11.1272
16.143	11.3457
17.2442	11.6735
18.3454	11.6735
19.4007	11.7827
