Adsorption isotherm of Nitrogen on HNUST-1
DOI: 10.1039/C3ce26177h
Adsorbate Nitrogen: InChIKey IJGRMHOSHXDMSA-UHFFFAOYSA-N
Temperature: 273 K
Tabular data in the source: 0
pressure (bar)	uptake (wt%)
0.0842092	0.530594
0.588915	1.18606
1.32303	1.84152
2.10303	2.60622
2.92892	3.48017
3.7548	4.35412
4.62656	5.11883
6.04891	5.99278
8.06774	7.19446
9.67362	8.06841
11.0042	8.61463
12.7019	9.37933
14.0783	9.81631
15.6842	10.4718
17.1983	10.7995
18.896	11.1272
20.2266	11.455
