Adsorption isotherm of Carbon Dioxide on HNUST-1
DOI: 10.1039/C3ce26177h
Adsorbate Carbon Dioxide: InChIKey CURLTUGMZLYLDI-UHFFFAOYSA-N
Temperature: 273 K
Tabular data in the source: 0
pressure (bar)	uptake (wt%)
-0.0534378	2.60622
-0.0534378	4.7911
0.0842092	12.9844
0.130092	7.3037
0.221856	16.0432
0.49715	20.3037
0.772445	25.0012
1.00186	28.7155
1.4148	32.539
1.87362	36.2533
2.51597	38.8751
3.38774	41.8247
4.39715	44.1188
5.13127	45.539
6.27833	47.1777
7.28774	48.2701
8.80186	49.2533
10.4995	50.2365
12.4266	51.0012
15.3172	51.9844
17.5654	52.8583
19.0336	53.0768
19.9972	53.0768
