Adsorption isotherm of Nitrogen on HNUST-1
DOI: 10.1039/C3ce26177h
Adsorbate Nitrogen: InChIKey IJGRMHOSHXDMSA-UHFFFAOYSA-N
Temperature: 77 K
Tabular data in the source: 0
pressure (bar)	uptake (cm3(STP)/g)
-0.000364	33.5377
-0.000364	104.655
-0.000364	132.949
0.00184882	2.18475
0.00184882	18.2436
0.00184882	74.8318
0.00184882	151.302
0.00184882	288.185
0.00406209	47.3024
0.00406209	61.8318
0.00406209	89.3612
0.00406209	123.008
0.00406209	211.714
0.00406209	227.008
0.00406209	246.891
0.00406209	266.773
0.00627537	167.361
0.00627537	181.891
0.00627537	197.949
0.00848865	305.773
0.0151285	322.597
0.0306214	331.008
0.0505409	337.891
0.0970197	344.008
0.119153	347.832
0.150138	350.126
0.189977	353.185
0.256376	353.949
0.291788	356.244
0.327201	356.244
0.364826	357.008
0.420158	358.538
0.462211	358.538
0.50205	360.067
0.548528	361.597
0.595007	362.361
0.645913	363.891
0.692391	363.891
0.761003	364.655
0.869454	367.714
0.962411	368.479
1.00225	368.479
