Adsorption isotherm of Hydrogen on HNUST-1
DOI: 10.1039/C3ce26177h
Adsorbate Hydrogen: InChIKey UFHFLCQGNIYNRP-UHFFFAOYSA-N
Temperature: 77 K
Tabular data in the source: 0
pressure (bar)	uptake (cm3(STP)/g)
0.00182509	7.53769
0.00400996	18.2436
0.0105646	25.1259
0.0149343	34.3024
0.0280436	49.5965
0.0651864	80.9495
0.0826654	93.1847
0.106699	105.42
0.139472	119.185
0.165691	129.126
0.187539	137.538
0.211573	146.714
0.233422	154.361
0.279304	163.538
0.347035	175.008
0.414766	187.244
0.517455	198.714
0.593926	207.891
0.663842	215.538
0.751237	223.185
0.853926	230.832
0.930396	237.714
0.989388	240.773
1.05712	242.302
