Adsorption isotherm of Methane on HNUST-1
DOI: 10.1039/C3ce26177h
Adsorbate Methane: InChIKey VNWKTOKETHGBQD-UHFFFAOYSA-N
Temperature: 273 K
Tabular data in the source: 0
pressure (bar)	uptake (cm3(STP)/g)
0.0193041	0.655336
0.0651864	2.94945
0.115439	6.77298
0.161321	10.5965
0.226867	15.1847
0.307707	20.5377
0.408212	25.1259
0.497791	29.7142
0.615775	34.3024
0.705355	38.1259
0.78838	42.7142
0.880144	45.773
0.952245	48.0671
1.05712	51.1259
