Adsorption isotherm of Nitrogen on CuBTC
DOI: 10.1002/anie.201402950
Adsorbate Nitrogen: InChIKey IJGRMHOSHXDMSA-UHFFFAOYSA-N
Temperature: 77 K
Tabular data in the source: 0
pressure (bar)	uptake (cm3(STP)/g)
0.0002676	358.537
0.0145023	365.854
0.0428938	373.171
0.0712725	379.268
0.0890204	384.146
0.149239	389.024
0.205893	391.463
0.266112	396.341
0.326304	398.78
0.388267	401.22
0.448434	401.22
0.506883	406.098
0.567064	407.317
0.634335	409.756
0.692732	409.756
0.754669	409.756
0.816618	410.976
0.880337	412.195
0.935221	414.634
0.98484	420.732
