Adsorption isotherm of Nitrogen on nano-polyaniline powder
DOI: 10.1002/anie.201402950
Adsorbate Nitrogen: InChIKey IJGRMHOSHXDMSA-UHFFFAOYSA-N
Temperature: 77 K
Tabular data in the source: 0
pressure (bar)	uptake (cm3(STP)/g)
0.0338212	185.366
0.0887442	191.463
0.138345	196.341
0.180829	197.561
0.241074	204.878
0.28534	207.317
0.336698	210.976
0.384516	214.634
0.434117	219.512
0.487297	228.049
0.538628	229.268
0.581125	231.707
0.632483	235.366
0.683854	240.244
0.729889	242.683
0.781247	246.341
0.836157	251.22
0.880462	257.317
0.933654	267.073
0.974784	307.317
