Adsorption isotherm of Nitrogen on CuBTC
DOI: 10.1002/anie.201402950
Adsorbate Nitrogen: InChIKey IJGRMHOSHXDMSA-UHFFFAOYSA-N
Temperature: 77 K
Tabular data in the source: 0
pressure (bar)	uptake (cm3(STP)/g)
-0.00659507	212.195
-0.00500672	195.122
-0.0049463	34.1463
-0.00476501	51.2195
-0.00443699	248.78
-0.00420392	270.732
-0.0040097	289.024
-0.0035565	331.707
-0.00332342	353.659
-0.0028357	232.927
-0.00232209	114.634
-0.0021926	126.829
-0.002007	310.976
-0.00195953	148.78
-0.00103156	69.5122
-0.000824382	89.0244
0.00916749	363.415
0.0358024	371.951
0.0570766	375.61
0.0765942	380.488
0.115617	389.024
0.16164	390.244
0.213011	395.122
0.257263	396.341
0.308608	398.78
0.35817	400
0.405951	400
0.464374	402.439
0.508627	403.659
0.556407	403.659
0.607726	403.659
0.65907	406.098
0.708606	404.878
0.758182	407.317
0.805974	408.537
0.855523	408.537
0.912178	410.976
0.954649	410.976
