Adsorption isotherm of Nitrogen on nano-polyaniline powder
DOI: 10.1002/anie.201402950
Adsorbate Nitrogen: InChIKey IJGRMHOSHXDMSA-UHFFFAOYSA-N
Temperature: 77 K
Tabular data in the source: 0
pressure (bar)	uptake (cm3(STP)/g)
-0.020821	39.0244
-0.0171911	47.561
-0.0152921	59.7561
-0.0152015	68.2927
-0.0150849	79.2683
-0.0132117	89.0244
-0.0129527	113.415
-0.0128491	123.171
-0.0127196	135.366
-0.0108464	145.122
-0.0107429	154.878
-0.00707415	167.073
0.0106997	174.39
0.0514915	182.927
0.0674569	186.585
0.0816398	189.024
0.09404	190.244
0.138345	196.341
0.191473	200
0.239279	202.439
0.340211	208.537
0.38626	212.195
0.435861	217.073
0.485449	220.732
0.533255	223.171
0.58106	225.61
0.632405	228.049
0.685545	232.927
0.733351	235.366
0.779387	237.805
0.828975	241.463
0.880358	247.561
0.931795	258.537
0.976562	308.537
