Adsorption isotherm of Nitrogen on SNU-15'
DOI: 10.1039/B900085b
Adsorbate Nitrogen: InChIKey IJGRMHOSHXDMSA-UHFFFAOYSA-N
Temperature: 77 K
Tabular data in the source: 0
pressure (bar)	uptake (cm3(STP)/g)
0.0280436	7.56586
0.113254	10.1877
0.165691	11.4986
0.26401	12.5474
0.366699	13.8583
0.467203	15.9558
0.569892	16.7423
0.663842	18.0533
0.766531	19.6264
0.871405	20.6751
