Adsorption isotherm of Methane on SNU-15'
DOI: 10.1039/B900085b
Adsorbate Methane: InChIKey VNWKTOKETHGBQD-UHFFFAOYSA-N
Temperature: 273 K
Tabular data in the source: 0
pressure (bar)	uptake (cm3(STP)/g)
0.0433377	1.02374
0.154766	3.64559
0.257455	5.2187
0.360144	6.79181
0.469388	8.88929
0.607035	10.1128
0.711909	11.3363
0.812413	12.2103
0.912918	12.3851
1.00031	12.7347
