Adsorption isotherm of Oxygen on SNU-15'
DOI: 10.1039/B900085b
Adsorbate Oxygen: InChIKey MYMOFIZGZYHOMD-UHFFFAOYSA-N
Temperature: 77 K
Tabular data in the source: 0
pressure (bar)	uptake (cm3(STP)/g)
0.00182509	63.6734
0.00400996	87.0079
0.00619484	47.9423
0.00619484	74.423
0.0149343	99.3306
0.0411528	103.263
0.0761108	106.934
0.0914049	108.769
0.146027	111.129
0.226867	114.013
