Adsorption isotherm of Carbon Dioxide on SNU-15'
DOI: 10.1039/B900085b
Adsorbate Carbon Dioxide: InChIKey CURLTUGMZLYLDI-UHFFFAOYSA-N
Temperature: 273 K
Tabular data in the source: 0
pressure (bar)	uptake (cm3(STP)/g)
0.0324133	3.29601
0.0564469	8.36492
0.106699	13.0842
0.202833	18.3279
0.301153	22.8725
0.410397	25.8439
0.567707	29.1649
0.666027	31.2624
0.814598	33.5347
0.960985	35.8069
