Adsorption isotherm of Methane on SNU-15'
DOI: 10.1039/B900085b
Adsorbate Methane: InChIKey VNWKTOKETHGBQD-UHFFFAOYSA-N
Temperature: 195 K
Tabular data in the source: 0
pressure (bar)	uptake (cm3(STP)/g)
0.0105646	5.2187
0.0193041	12.7347
0.0520772	19.5515
0.102329	24.97
0.205018	30.0389
0.305523	33.0103
0.454094	36.3313
0.60485	38.6036
0.762161	40.0019
0.998128	42.6237
