Adsorption isotherm of Hydrogen on SNU-15'
DOI: 10.1039/B900085b
Adsorbate Hydrogen: InChIKey UFHFLCQGNIYNRP-UHFFFAOYSA-N
Temperature: 77 K
Tabular data in the source: 0
pressure (bar)	uptake (cm3(STP)/g)
0.00619484	0.749056
0.00837971	18.3154
0.0193041	24.8701
0.0389679	34.8331
0.0804806	45.0583
0.113254	50.5642
0.202833	59.4785
0.35796	68.1306
0.567707	73.8986
0.816783	79.4045
0.969724	81.502
