Adsorption isotherm of Carbon Dioxide on SNU-15'
DOI: 10.1039/B900085b
Adsorbate Carbon Dioxide: InChIKey CURLTUGMZLYLDI-UHFFFAOYSA-N
Temperature: 195 K
Tabular data in the source: 0
pressure (bar)	uptake (cm3(STP)/g)
0.00182509	32.4859
0.00837971	16.2305
0.0149343	45.77
0.0411528	52.9363
0.102329	60.6271
0.159136	63.249
0.312077	67.9683
0.51527	72.1632
0.711909	74.9599
0.96317	76.8826
