Adsorption isotherm of Methane on {[Cd2(NNNN-tetrakis(4-(4-pyridine)-phenyl biphenyl-44-diamine)(bpdc)1.5(H2O)2](CO3)0.5}
DOI: 10.1039/c4cc08763a
Article source: Figure S8
Adsorbate Methane: InChIKey VNWKTOKETHGBQD-UHFFFAOYSA-N
Kind: experiment
Temperature: 77 K
Tabular data in the source: 0
pressure (bar)	uptake (cm3(STP)/g)
0.01553	0.398369
0.020687	0.398562
0.031009	0.44867
0.036181	0.548311
0.049089	0.64824
0.061998	0.748169
0.074913	0.897822
0.095572	1.09749
0.121374	1.1979
0.137159	3.38633
0.139454	1.39747
0.150076	3.53598
0.152383	1.64657
0.157826	3.63572
0.162735	1.89557
0.170749	3.8351
0.173084	2.14458
0.181077	3.93493
0.188586	2.34405
0.193772	2.54314
0.193993	4.08458
0.204109	2.6927
0.20433	4.23414
0.219823	4.38389
0.224767	2.89236
0.237683	3.04201
0.237911	4.63318
0.250598	3.19167
0.261156	4.88267
0.266091	3.34142
0.276656	5.08214
0.286751	3.54108
0.292144	5.18217
0.299666	3.69073
0.307644	5.38164
0.312581	3.84039
0.325724	5.58121
0.328076	3.99014
0.343577	4.18961
0.35154	5.78107
0.356485	4.28954
0.366814	4.38937
0.3722	5.98073
0.377144	4.4892
0.390059	4.63886
0.390265	6.08085
0.402967	4.73879
0.40318	6.23051
0.410717	4.83852
0.42126	6.43008
0.431369	4.98846
0.439327	6.5302
0.44687	5.18794
0.454613	5.23795
0.459985	6.72986
0.470115	5.43742
0.47548	6.87961
0.483023	5.53735
0.501096	5.6872
0.506453	7.07966
0.521762	5.93659
0.529698	7.32915
0.534671	6.03652
0.545007	6.18607
0.552928	7.47919
0.560507	6.38555
0.57343	6.58492
0.576166	7.67895
0.596682	6.88413
0.599396	7.82898
0.614891	7.97873
0.617333	7.03407
0.627663	7.13391
0.627791	8.02894
0.6483	7.1844
0.653608	8.2288
0.663787	7.28443
0.669109	8.42827
0.676695	7.38435
0.689618	7.58373
0.697504	8.62822
0.71027	7.73367
0.720741	8.82799
0.728343	7.88352
0.738671	7.98335
0.738807	8.92811
0.756744	8.1332
0.759466	9.12777
0.767074	8.23303
0.774967	9.32725
0.779989	8.38268
0.790311	8.43279
0.800783	9.5271
0.803219	8.53272
0.816136	8.68237
0.821435	9.67704
0.826464	8.7822
0.836794	8.88204
0.8395	9.77717
0.849702	8.98197
0.84983	9.877
0.857452	9.0817
0.865317	9.97702
0.867782	9.18154
0.88069	9.28146
0.883383	10.0771
0.893712	10.177
0.896184	9.43121
0.904042	10.2768
0.911672	9.53124
0.924587	9.68089
0.924679	10.3273
0.93233	9.7309
0.935008	10.4271
0.937502	9.83055
0.947917	10.5271
0.955567	9.93067
0.965982	10.6272
0.968475	10.0306
0.976226	10.1303
0.98397	10.1803
0.986627	10.7274
0.999471	10.3798
1.00986	10.8774
1.01496	10.4798
1.02787	10.5798
1.0305	10.9777
1.0382	10.6796
1.04599	11.0777
1.05368	10.7796
1.06918	10.9294
1.07438	11.2279
1.07951	11.0292
1.08728	11.2781
1.09499	11.1292
1.10532	11.2291
1.11308	11.3785
1.11823	11.329
1.12855	11.3791
