Adsorption isotherm of Nitrogen on {[Cd2(NNNN-tetrakis(4-(4-pyridine)-phenyl biphenyl-44-diamine)(bpdc)1.5(H2O)2](CO3)0.5}
DOI: 10.1039/c4cc08763a
Article source: Figure S7
Adsorbate Nitrogen: InChIKey IJGRMHOSHXDMSA-UHFFFAOYSA-N
Kind: experiment
Temperature: 77 K
Tabular data in the source: 0
pressure (bar)	uptake (cm3(STP)/g)
0.002421	1.32723
0.008566	1.94508
0.02905	2.76888
0.057728	3.38673
0.078212	3.38673
0.098697	3.38673
0.121229	3.59268
0.137616	5.03432
0.139665	3.59268
0.158101	3.59268
0.176536	3.79863
0.199069	3.79863
0.205214	5.03432
0.250279	3.79863
0.258473	4.82838
0.30149	4.62243
0.319926	3.59268
0.354749	4.21053
0.369088	3.38673
0.405959	3.79863
0.41825	3.38673
0.455121	3.79863
0.467412	3.18078
0.504283	3.79863
0.516574	2.97483
0.549348	3.59268
0.565736	2.76888
0.602607	3.38673
0.616946	2.35698
0.653818	3.18078
0.666108	2.35698
0.70298	3.59268
0.717318	2.15103
0.75419	4.41648
0.76648	2.15103
0.791061	6.27002
0.817691	2.15103
0.834078	11.0069
0.848417	2.76888
0.860708	18.2151
0.891434	4.41648
0.899628	5.24027
0.911918	51.9908
0.918063	54.8741
0.92216	9.97712
0.940596	56.9336
0.946741	20.0686
0.963128	57.1396
0.971322	38.8101
0.981564	46.8421
0.989758	51.167
0.995903	76.087
