Adsorption isotherm of Carbon Dioxide on {[Cd2(NNNN-tetrakis(4-(4-pyridine)-phenyl biphenyl-44-diamine)(bpdc)1.5(H2O)2](CO3)0.5}
DOI: 10.1039/c4cc08763a
Article source: Figure S8
Adsorbate Carbon Dioxide: InChIKey CURLTUGMZLYLDI-UHFFFAOYSA-N
Kind: experiment
Temperature: 77 K
Tabular data in the source: 0
pressure (bar)	uptake (cm3(STP)/g)
0.028459	0.64747
0.036217	0.796931
0.046561	0.996212
0.054318	1.14567
0.059497	1.29504
0.069841	1.49432
0.077591	1.59405
0.087942	1.84306
0.098286	2.04234
0.111208	2.24172
0.121552	2.441
0.131896	2.64028
0.137238	3.9333
0.142232	2.78984
0.147589	4.1823
0.155162	3.03894
0.160519	4.4314
0.168084	3.23831
0.170855	4.58096
0.17842	3.38787
0.183785	4.83006
0.188764	3.58715
0.199286	5.02953
0.201694	3.83625
0.212223	5.32836
0.214609	3.9859
0.227532	4.18528
0.227724	5.52783
0.24046	4.43438
0.240654	5.77693
0.248404	5.87667
0.258548	4.68368
0.261319	6.02632
0.269085	6.22551
0.271478	4.93278
0.284585	6.42498
0.289764	6.57434
0.292157	5.28161
0.305258	6.72409
0.307659	5.48109
0.315417	5.63055
0.315594	6.87365
0.328517	7.07303
0.330918	5.83002
0.341261	6.0293
0.349019	6.17876
0.351776	7.42196
0.364513	6.32851
0.372271	6.47797
0.372449	7.72107
0.385186	6.62763
0.387957	7.97027
0.398115	6.87673
0.411038	7.0761
0.411209	8.26948
0.41896	8.36922
0.426532	7.22585
0.437053	8.66823
0.444626	7.52487
0.45772	8.91762
0.460127	7.72434
0.478214	7.97364
0.478393	9.21674
0.496302	8.22293
0.501644	9.51595
0.51181	8.47213
0.519739	9.81496
0.535061	8.77134
0.54299	10.1142
0.555742	9.12017
0.568821	10.4135
0.573829	9.36947
0.589494	10.7126
0.591909	9.56904
0.607425	9.86796
0.620482	11.0121
0.633248	10.1175
0.651334	10.3668
0.651492	11.4608
0.669422	10.6161
0.682337	10.7658
0.687651	11.8599
0.69526	10.9652
0.708318	12.1093
0.71334	11.1647
0.726404	12.3586
0.728841	11.3642
0.746928	11.6135
0.749657	12.6578
0.757264	11.763
0.76515	12.8075
0.770179	11.9127
0.780516	12.0623
0.785817	13.0569
0.796011	12.212
0.806347	12.3616
0.806475	13.2566
0.819262	12.5112
0.827133	13.4563
0.834763	12.7107
0.8478	13.7057
0.85543	12.9601
0.860708	13.8056
0.870931	13.1596
0.878796	14.0549
0.891604	13.4587
0.891703	14.1548
0.901932	13.5585
0.912362	14.3545
0.914849	13.7082
0.925185	13.8577
0.933027	14.6039
0.943272	14.107
0.945944	14.7535
0.953602	14.2068
0.958852	14.8534
0.966517	14.3565
0.97686	14.5558
0.976932	15.053
0.987183	14.6059
0.995011	15.2526
1.0001	14.8053
1.01302	14.9549
1.01309	15.4024
1.02335	15.0547
1.03116	15.5523
1.03369	15.254
1.04144	15.304
1.04661	15.4037
1.04665	15.702
1.05952	15.5533
1.06214	15.8518
1.06986	15.7029
1.07247	15.9516
1.08022	16.0513
1.08277	15.8028
1.08281	16.1012
1.09829	16.1515
1.11121	16.3011
1.11638	16.4008
1.13444	16.5009
