Adsorption isotherm of Methane on UTSA-88a
DOI: 10.1039/c5cc05850c
Article source: Figure 2
Adsorbate Methane: InChIKey VNWKTOKETHGBQD-UHFFFAOYSA-N
Kind: experiment
Temperature: 273 K
Tabular data in the source: 0
pressure (bar)	uptake (cm3(STP)/cm3)
0	0
0.144217	13.8329
0.449207	8.64553
0.594295	20.7493
0.742433	26.8012
1.19295	32.853
1.94453	41.4986
2.09136	50.1441
2.84294	58.7896
3.1427	63.9769
3.44159	70.8934
4.04286	77.8098
4.49163	87.3199
4.94127	95.1009
5.54167	103.746
6.14119	114.121
6.29107	116.715
7.0444	121.902
7.9463	132.277
8.09487	137.464
8.99895	143.516
10.354	154.755
10.8045	160.807
11.7099	164.265
13.5189	174.64
14.1206	180.692
15.1772	184.15
17.289	193.66
19.7037	202.305
19.8527	206.628
22.1183	210.951
25.2885	220.461
27.402	226.513
28.761	229.971
31.9316	238.617
32.386	236.888
36.6149	245.533
37.2179	248.991
41.4486	254.179
43.563	258.501
46.7358	262.824
50.6632	269.741
52.4766	271.47
58.5202	279.251
58.9724	281.844
64.5638	287.032
65.9236	288.761
66.2251	290.49
