Adsorption isotherm of Methane on UTSA-88a
DOI: 10.1039/c5cc05850c
Article source: Figure 2
Adsorbate Methane: InChIKey VNWKTOKETHGBQD-UHFFFAOYSA-N
Kind: experiment
Temperature: 298 K
Tabular data in the source: 0
pressure (bar)	uptake (cm3(STP)/cm3)
0	0
0.454545	3.46821
0.757576	6.06936
1.06061	9.53757
1.36364	19.0751
1.66667	22.5434
1.9697	26.0116
2.27273	30.3468
2.57576	34.6821
2.87879	39.8844
3.0303	45.9538
3.63636	46.8208
3.93939	50.289
4.39394	55.4913
4.84848	62.4277
5.60606	67.6301
6.06061	78.0347
6.36364	80.6358
7.12121	84.9711
8.0303	95.3757
8.93939	98.8439
10.4545	111.85
11.6667	122.254
12.4242	125.723
13.4848	131.792
15	142.197
17.1212	150.867
17.4242	151.734
19.3939	163.006
22.2727	171.676
23.6364	174.277
25.1515	180.347
28.6364	188.15
31.6667	196.821
32.2727	195.954
36.5152	204.624
37.4242	206.358
41.3636	213.295
44.0909	218.497
46.8182	221.965
51.2121	228.035
52.7273	228.902
59.2424	238.439
65	246.243
66.5152	246.243
