Adsorption isotherm of Methane on Mg-MOF-74
DOI: 10.1021/Ja307076t
Adsorbate Methane: InChIKey VNWKTOKETHGBQD-UHFFFAOYSA-N
Temperature: 298 K
Tabular data in the source: 0
pressure (bar)	uptake (mmol/g)
0.611621	0.767527
1.52905	1.27965
2.44648	2.13266
3.0581	2.64451
4.28135	3.41256
4.89297	3.92442
5.8104	4.43654
7.64526	4.94944
9.17431	5.63253
11.0092	5.97498
13.1498	6.48814
15.2905	6.83086
18.6544	7.25984
23.5474	7.51968
27.2171	7.77847
32.1101	8.29398
34.8624	8.04066
36.6972	8.12744
39.7554	8.55617
47.4006	8.39224
48.9297	8.56398
51.0703	8.48059
53.211	8.48241
55.0459	8.48397
56.8807	8.48554
58.104	8.40136
59.3272	8.4024
61.7737	8.40448
63.9144	8.40631
65.1376	8.40735
66.055	8.40813
68.8073	8.4957
71.5596	8.41282
72.7829	8.32864
74.3119	8.32995
76.7584	8.24681
80.1223	8.24968
82.263	8.2515
85.3211	8.16888
87.7676	8.17097
88.3792	8.08627
92.3547	8.00443
95.4128	7.92182
