Adsorption isotherm of Methane on Mg-MOF-74
DOI: 10.1021/Ja307076t
Adsorbate Methane: InChIKey VNWKTOKETHGBQD-UHFFFAOYSA-N
Temperature: 298 K
Tabular data in the source: 0
pressure (bar)	uptake (mmol/g)
0.395257	0.815786
1.58103	2.76112
1.97628	1.44331
3.55731	3.63966
4.34783	4.14168
5.5336	4.70646
7.11462	5.08297
9.48617	5.7105
11.4625	6.40078
13.0435	6.7773
16.2055	7.09106
17.7866	7.21657
20.5534	7.34207
22.1344	7.59309
26.087	7.9696
29.249	8.15786
33.9921	8.28337
39.5257	8.40887
41.8972	8.53438
44.2688	8.53438
45.8498	8.65988
47.0356	8.59713
49.0119	8.65988
50.9881	8.53438
52.5692	8.59713
54.9407	8.59713
56.917	8.59713
58.8933	8.47162
61.6601	8.53438
63.6364	8.47162
66.0079	8.53438
68.3794	8.59713
73.1225	8.47162
76.6798	8.40887
82.2134	8.40887
85.3755	8.28337
87.747	8.15786
91.6996	8.03236
95.6522	7.9696
