Adsorption isotherm of Methane on Mg-MOF-74
DOI: 10.1021/Ja307076t
Adsorbate Methane: InChIKey VNWKTOKETHGBQD-UHFFFAOYSA-N
Temperature: 283 K
Tabular data in the source: 0
pressure (bar)	uptake (mmol/g)
7.05521	0.213334
9.81595	0.31921
12.2699	0.321739
15.9509	0.428564
20.5521	0.845433
25.4601	1.05655
30.0613	1.37039
34.3558	1.68391
38.3436	1.79105
42.638	2.20761
46.319	2.41746
50	2.62732
53.681	2.94021
57.362	3.2531
61.0429	3.56599
65.0307	3.8792
68.7117	4.19208
72.6994	4.40226
76.6871	4.8185
80.0613	5.02804
83.4356	5.23758
87.7301	5.65413
91.7178	5.96734
95.7055	6.28054
98.773	6.5928
