Adsorption isotherm of Methane on Mg-MOF-74
DOI: 10.1021/Ja307076t
Adsorbate Methane: InChIKey VNWKTOKETHGBQD-UHFFFAOYSA-N
Temperature: 179 K
Tabular data in the source: 0
pressure (bar)	uptake (mmol/g)
0.711595	0.223952
1.49733	0.447904
2.17254	0.671856
3.28677	1.11976
4.77127	1.56766
6.6493	2.23952
8.89162	2.91138
10.4993	3.35928
14.0433	4.14311
18.7837	4.92695
27.2609	5.26287
36.3547	4.70299
