Adsorption isotherm of Methane on Mg-MOF-74
DOI: 10.1021/Ja307076t
Adsorbate Methane: InChIKey VNWKTOKETHGBQD-UHFFFAOYSA-N
Temperature: 179 K
Tabular data in the source: 0
pressure (bar)	uptake (mmol/g)
0.00345319	0.111976
0.00696883	0.111976
0.0140702	0.335928
0.0272728	0.783832
0.0486721	1.23174
0.0736529	1.79162
0.106945	2.3515
0.155363	3.13533
0.235335	4.14311
0.371504	5.1509
0.539564	5.82275
0.887459	6.71856
1.58458	7.39042
2.94642	7.72635
5.70687	7.83832
11.0482	7.72635
19.678	7.27844
26.2355	6.60659
33.5475	5.71078
41.1917	5.1509
