Adsorption isotherm of Methane on Mg-MOF-74
DOI: 10.1021/Ja307076t
Adsorbate Methane: InChIKey VNWKTOKETHGBQD-UHFFFAOYSA-N
Temperature: 283 K
Tabular data in the source: 0
pressure (bar)	uptake (mmol/g)
1.17172	0.589284
3.13476	1.25175
4.70097	1.91451
7.06319	2.50292
9.41602	3.38641
11.3885	3.75379
14.1499	4.26814
16.9113	4.78248
20.0719	5.22276
23.2324	5.66304
26.3977	5.95578
29.9575	6.322
33.5196	6.61444
37.0817	6.90689
41.043	7.12527
44.6075	7.34395
48.5712	7.48856
52.138	7.63347
56.1016	7.77808
59.6708	7.84922
63.6368	7.92006
67.6028	7.9909
71.5688	8.06175
75.5371	8.05882
79.5055	8.05589
83.0746	8.12703
87.0453	8.05033
91.0137	8.0474
94.982	8.04447
98.9527	7.96778
