Adsorption isotherm of Methane on Mg-MOF-74
DOI: 10.1021/Ja307076t
Adsorbate Methane: InChIKey VNWKTOKETHGBQD-UHFFFAOYSA-N
Temperature: 179 K
Tabular data in the source: 0
pressure (bar)	uptake (mmol/g)
0.30581	10.6531
1.22324	12.5288
3.97554	13.2982
7.03364	13.9825
9.48012	14.4107
12.2324	14.8392
15.2905	15.0123
18.3486	15.0149
21.4067	14.847
24.159	14.5937
26.6055	14.1697
28.4404	13.7451
30.581	13.406
32.4159	12.7258
33.945	12.0454
