Adsorption isotherm of Methane on Mg-MOF-74
DOI: 10.1021/Ja307076t
Adsorbate Methane: InChIKey VNWKTOKETHGBQD-UHFFFAOYSA-N
Temperature: 343 K
Tabular data in the source: 0
pressure (bar)	uptake (mmol/g)
0.375702	0.66364
1.54272	1.40046
2.31996	1.91627
3.48933	2.57933
4.6587	3.24238
5.82807	3.90543
7.79346	4.49413
8.96753	5.00965
10.9376	5.4508
13.3022	5.96544
15.2746	6.33283
18.036	6.84717
21.199	7.21368
23.9651	7.58048
27.9217	7.94641
31.087	8.23915
33.8601	8.38464
37.8191	8.67679
40.5922	8.82228
44.159	8.96719
48.5195	9.11151
53.2792	9.18177
57.2452	9.25261
60.8143	9.32374
63.5898	9.39547
67.1613	9.39283
70.7329	9.3902
75.098	9.38698
80.2569	9.38317
87.0078	9.23065
90.1825	9.22831
94.1508	9.22538
98.9152	9.1481
