Adsorption isotherm of Methane on Mg-MOF-74
DOI: 10.1021/Ja307076t
Adsorbate Methane: InChIKey VNWKTOKETHGBQD-UHFFFAOYSA-N
Temperature: 343 K
Tabular data in the source: 0
pressure (bar)	uptake (mmol/g)
1.82599	0.723107
4.26234	1.54988
6.69994	2.27361
8.52594	2.99672
11.2706	3.61774
13.4049	4.1351
16.7612	4.75675
19.2026	5.1714
21.9473	5.79242
23.4725	6.10309
26.221	6.41501
28.6637	6.72663
31.4109	7.14159
33.2445	7.24651
35.9929	7.55844
38.7414	7.87037
41.4899	8.18229
43.628	8.39056
46.6835	8.59977
48.8216	8.80804
51.8772	9.01725
53.7107	9.12218
56.7663	9.33139
58.5986	9.53934
61.6554	9.64552
63.7935	9.85379
66.8503	9.95997
68.6826	10.1679
71.7394	10.2741
83.6583	10.9046
86.7151	11.0108
88.5487	11.1157
91.6055	11.2219
93.7449	11.3271
96.8017	11.4333
99.8572	11.6425
