Adsorption isotherm of Methane on Mg-MOF-74
DOI: 10.1021/Ja307076t
Adsorbate Methane: InChIKey VNWKTOKETHGBQD-UHFFFAOYSA-N
Temperature: 298 K
Tabular data in the source: 0
pressure (bar)	uptake (mmol/g)
2.44648	0.683868
4.89297	1.19729
7.64526	1.7962
10.3976	2.22466
13.1498	2.65311
15.9021	3.08157
17.737	3.33881
20.4893	3.59682
22.9358	3.9398
25.6881	4.11259
27.8287	4.28486
30.8869	4.45791
32.7217	4.62992
35.7798	4.80297
37.6147	4.97498
40.367	5.06255
42.8135	5.14986
45.8716	5.23769
47.7064	5.32447
50.7645	5.4123
52.5994	5.41387
55.6575	5.5017
57.7982	5.58874
60.8563	5.59135
62.6911	5.67813
65.7492	5.68074
67.8899	5.68257
70.948	5.68517
73.0887	5.687
76.1468	5.6896
77.9817	5.69117
81.0398	5.69377
82.8746	5.61011
85.9327	5.61272
88.0734	5.61454
91.1315	5.61715
92.9664	5.53349
96.0245	5.5361
99.0826	5.45348
