Adsorption isotherm of Methane on Mg-MOF-74
DOI: 10.1021/Ja307076t
Adsorbate Methane: InChIKey VNWKTOKETHGBQD-UHFFFAOYSA-N
Temperature: 179 K
Tabular data in the source: 0
pressure (bar)	uptake (mmol/g)
0.0010857	1.89127
0.00157192	2.55465
0.00209619	3.10772
0.00291266	3.7716
0.00404706	4.5468
0.00539685	5.21117
0.00749894	5.87506
0.0104198	6.53894
0.0150859	7.09101
0.0209619	7.75489
0.0303487	8.30697
0.04394	8.85905
0.0610534	9.41162
0.0883955	9.96369
0.117877	10.6281
0.163789	11.292
0.218417	12.0676
0.291263	12.732
0.404709	13.5072
0.562341	14.1711
0.749894	14.8355
1.08571	15.3875
1.57191	15.9396
2.27585	16.2691
3.29501	16.7098
4.77058	17.2619
6.90695	17.814
9.59717	18.4779
10.4198	18.5882
14.478	19.1408
20.9619	19.1363
26.8269	18.2428
31.6228	17.2391
34.3329	16.125
