Adsorption isotherm of Methane on Mg-MOF-74
DOI: 10.1021/Ja307076t
Adsorbate Methane: InChIKey VNWKTOKETHGBQD-UHFFFAOYSA-N
Temperature: 298 K
Tabular data in the source: 0
pressure (bar)	uptake (mmol/g)
3.55731	0.439269
6.71937	1.0668
10.6719	1.44331
14.6245	1.88258
17.7866	2.32185
22.5296	2.63562
27.2727	3.01213
32.0158	3.20039
36.3636	3.4514
41.1067	3.63966
45.4545	3.82792
51.3834	3.89067
57.7075	4.01618
63.6364	4.01618
71.9368	4.01618
77.4704	4.01618
85.7708	4.01618
93.2806	3.89067
98.8142	3.76517
