Adsorption isotherm of Methane on Mg-MOF-74
DOI: 10.1021/Ja307076t
Adsorbate Methane: InChIKey VNWKTOKETHGBQD-UHFFFAOYSA-N
Temperature: 298 K
Tabular data in the source: 0
pressure (bar)	uptake (mmol/g)
1.58103	2.82387
3.55731	4.01618
7.11462	5.02022
11.4625	5.96151
14.6245	6.27528
16.6008	6.33803
20.1581	6.52629
24.1107	6.58904
28.0632	6.65179
32.0158	6.65179
35.9684	6.58904
39.9209	6.58904
43.4783	6.52629
47.4308	6.40078
51.3834	6.33803
55.336	6.27528
58.8933	6.14977
62.8458	6.08702
66.4032	5.96151
70.3557	5.89876
74.3083	5.77326
77.8656	5.64775
81.8182	5.52224
85.3755	5.39674
89.3281	5.33399
92.8854	5.20848
96.8379	5.08297
98.8142	4.95747
