Adsorption isotherm of Methane on Mg-MOF-74
DOI: 10.1021/Ja307076t
Adsorbate Methane: InChIKey VNWKTOKETHGBQD-UHFFFAOYSA-N
Temperature: 283 K
Tabular data in the source: 0
pressure (bar)	uptake (mmol/g)
0.664522	4.05678
0.699744	2.95023
1.04022	4.72042
1.80102	5.75262
2.16968	6.63757
2.93282	7.596
4.09984	8.33282
5.27391	8.84834
6.44798	9.36385
7.62204	9.87936
9.19764	10.247
10.7685	10.7623
12.3441	11.1299
15.5071	11.4965
18.6677	11.9367
21.833	12.2295
26.5879	12.4473
29.7579	12.5925
34.5152	12.7365
40.0662	12.8799
44.8306	12.8027
49.9918	12.7251
55.1553	12.5737
60.3189	12.4224
65.4848	12.1973
69.8547	12.0465
74.2269	11.822
78.9959	11.5972
83.3705	11.2989
88.5364	11.0737
92.115	10.8498
96.0927	10.5518
99.2744	10.3281
