Adsorption isotherm of Methane on Mg-MOF-74
DOI: 10.1021/Ja307076t
Adsorbate Methane: InChIKey VNWKTOKETHGBQD-UHFFFAOYSA-N
Temperature: 343 K
Tabular data in the source: 0
pressure (bar)	uptake (mmol/g)
2.1318	0.723422
3.65199	1.44621
7.00575	2.27393
9.74916	2.99798
12.1855	3.82475
14.9327	4.23971
17.9845	4.75801
21.3407	5.37966
25.0066	5.69254
29.2803	6.31513
32.6404	6.62769
35.3914	6.73356
38.447	6.94277
41.1967	7.15167
44.2535	7.25785
47.309	7.46706
50.3658	7.57325
53.1168	7.67911
56.1736	7.78529
59.2304	7.89148
62.2885	7.89463
65.3453	8.00081
68.4034	8.00396
71.1544	8.10983
74.2124	8.11298
77.2705	8.11613
80.3286	8.11928
83.3866	8.12243
86.4447	8.12558
89.5027	8.12873
92.5608	8.13188
95.6189	8.13503
98.6782	8.03515
