Adsorption isotherm of Methane on Mg-MOF-74
DOI: 10.1021/Ja307076t
Adsorbate Methane: InChIKey VNWKTOKETHGBQD-UHFFFAOYSA-N
Temperature: 179 K
Tabular data in the source: 0
pressure (bar)	uptake (mmol/g)
0.00109096	2.01557
0.00151964	2.46347
0.00203156	3.02335
0.0028312	3.69521
0.00394657	4.47904
0.00527752	5.1509
0.00735479	5.82275
0.0102497	6.49461
0.014883	7.05449
0.0215943	7.27844
0.0313394	7.61437
0.0473893	7.83832
0.0716407	7.9503
0.103921	8.06228
0.177825	8.17425
0.291976	8.28623
0.441176	8.17425
0.666782	8.17425
1.00776	8.17425
1.5231	8.17425
2.30198	8.17425
3.47829	8.06228
5.257	8.06228
7.94334	7.9503
13.0296	7.61437
24.1735	6.94251
