Adsorption isotherm of Methane on Mg-MOF-74
DOI: 10.1021/Ja307076t
Adsorbate Methane: InChIKey VNWKTOKETHGBQD-UHFFFAOYSA-N
Temperature: 283 K
Tabular data in the source: 0
pressure (bar)	uptake (mmol/g)
0.723225	2.21252
1.09188	3.09747
1.85972	3.90836
2.62756	4.71925
3.00561	5.30912
4.9663	6.04536
6.92934	6.70783
9.28687	7.44377
12.0483	7.95812
14.812	8.39869
17.5781	8.76549
21.9339	9.05735
24.7024	9.35038
29.4573	9.56818
33.421	9.71279
37.7862	9.70957
40.5593	9.85507
44.9245	9.85185
48.8929	9.84892
53.258	9.8457
57.2287	9.769
61.5963	9.69201
65.1701	9.6156
67.9503	9.53979
72.3225	9.31525
76.2932	9.23856
80.2616	9.23563
85.4298	8.93674
88.2124	8.78715
92.5846	8.56262
96.1608	8.41245
99.737	8.26227
