Adsorption isotherm of Methane on Mg-MOF-74
DOI: 10.1021/Ja307076t
Adsorbate Methane: InChIKey VNWKTOKETHGBQD-UHFFFAOYSA-N
Temperature: 298 K
Tabular data in the source: 0
pressure (bar)	uptake (mmol/g)
1.83486	2.13213
3.66972	3.15637
6.11621	4.18113
8.56269	5.12067
10.3976	5.46312
13.1498	6.06203
15.9021	6.49049
19.8777	7.00521
25.6881	7.43628
31.8043	7.78238
37.6147	7.95778
43.7309	8.21866
49.5413	8.13839
54.4343	8.22778
59.3272	8.23195
60.8563	8.14803
63.3028	8.15012
65.1376	8.15168
67.8899	8.06881
70.6422	8.07115
73.0887	8.07324
76.1468	7.9054
79.2049	7.908
81.9572	7.7399
85.0153	7.65729
88.0734	7.57467
90.8257	7.49179
93.8838	7.40918
96.9419	7.32656
100.306	7.15898
