Adsorption isotherm of Methane on Mg-MOF-74
DOI: 10.1021/Ja307076t
Adsorbate Methane: InChIKey VNWKTOKETHGBQD-UHFFFAOYSA-N
Temperature: 283 K
Tabular data in the source: 0
pressure (bar)	uptake (mmol/g)
0.592658	1.54609
1.49744	2.57735
1.79187	3.50494
2.39211	4.43285
3.90598	5.6708
5.42364	6.59965
6.02894	7.11544
7.85493	7.83854
8.76856	8.14858
9.98547	8.665
11.5069	9.28476
13.6425	9.69909
16.6917	10.4235
18.5215	10.8375
21.2675	11.3555
23.403	11.7698
26.1515	12.0817
28.5954	12.2903
31.3439	12.6022
33.4808	12.9135
36.5363	13.1227
38.6744	13.331
41.73	13.5402
43.5623	13.7482
46.6191	13.8544
53.6476	14.2737
56.7031	14.4829
63.7329	14.7993
66.7897	14.9055
68.6232	15.0104
71.68	15.1166
73.5136	15.2215
76.5704	15.3277
78.7111	15.3299
81.7679	15.436
83.6014	15.541
86.6582	15.6472
88.4931	15.649
91.5499	15.7552
93.6893	15.8605
96.7461	15.9666
99.1925	15.9692
