Adsorption isotherm of Methane on Mg-MOF-74
DOI: 10.1021/Ja307076t
Adsorbate Methane: InChIKey VNWKTOKETHGBQD-UHFFFAOYSA-N
Temperature: 179 K
Tabular data in the source: 0
pressure (bar)	uptake (mmol/g)
0.30581	8.43732
1.52905	11.6768
3.66972	12.4457
5.8104	13.1293
8.8685	13.8137
12.2324	13.8165
16.8196	13.65
20.4893	13.4827
23.8532	13.1446
26.6055	12.6357
28.7462	12.3818
30.8869	11.7871
32.4159	11.3623
33.6391	10.7667
