Adsorption isotherm of Methane on Mg-MOF-74
DOI: 10.1021/Ja307076t
Adsorbate Methane: InChIKey VNWKTOKETHGBQD-UHFFFAOYSA-N
Temperature: 283 K
Tabular data in the source: 0
pressure (bar)	uptake (mmol/g)
0.331087	2.06528
0.690352	3.24531
1.84094	4.49852
2.21664	5.16216
3.7711	6.19378
4.94752	6.63552
6.51372	7.29828
8.07993	7.96104
10.043	8.62351
12.0084	9.21221
14.7698	9.72655
17.928	10.2406
21.4878	10.6068
25.0499	10.8993
28.6144	11.1179
32.578	11.2626
36.1448	11.4075
40.1108	11.4783
44.0792	11.4754
48.0475	11.4724
52.0182	11.3958
55.9889	11.3191
59.5651	11.1689
63.5358	11.0922
67.112	10.942
71.0851	10.7915
74.6613	10.6414
78.6343	10.4909
82.6097	10.2667
86.1883	10.0427
89.7645	9.89254
93.7399	9.6683
97.3184	9.44435
