Adsorption isotherm of Methane on Mg-MOF-74
DOI: 10.1021/Ja307076t
Adsorbate Methane: InChIKey VNWKTOKETHGBQD-UHFFFAOYSA-N
Temperature: 179 K
Tabular data in the source: 0
pressure (bar)	uptake (mmol/g)
0.735452	14.8374
0.750616	13.601
2.25058	15.9723
3.47002	16.2827
6.53061	16.0798
10.5036	16.2899
11.7268	16.2912
14.7849	16.2943
18.7603	16.2984
22.43	16.3022
26.4042	16.4093
30.0752	16.3101
33.4378	16.4166
38.0274	16.2152
42.3074	16.3227
