Adsorption isotherm of Methane on Mg-MOF-74
DOI: 10.1021/Ja307076t
Adsorbate Methane: InChIKey VNWKTOKETHGBQD-UHFFFAOYSA-N
Temperature: 179 K
Tabular data in the source: 0
pressure (bar)	uptake (mmol/g)
0.611621	13.6362
0.917431	14.4887
1.22324	15.3412
2.14067	16.1089
3.66972	16.8773
5.8104	17.5609
7.95107	18.1592
10.0917	18.6724
12.844	19.1009
15.9021	19.2739
18.6544	19.2763
21.4067	19.0229
24.159	18.6844
26.9113	18.1754
29.052	17.5807
30.8869	16.9857
32.7217	16.2202
33.945	15.4543
