Adsorption isotherm of Methane on Mg-MOF-74
DOI: 10.1021/Ja307076t
Adsorbate Methane: InChIKey VNWKTOKETHGBQD-UHFFFAOYSA-N
Temperature: 298 K
Tabular data in the source: 0
pressure (bar)	uptake (mmol/g)
0.395257	1.94534
1.58103	2.51011
3.16206	3.82792
5.13834	5.20848
7.50988	6.21252
9.09091	6.7773
10.6719	7.34207
13.0435	7.90685
15.415	8.34612
18.1818	8.78539
20.9486	9.22466
24.1107	9.53842
27.668	9.85219
31.2253	10.0404
35.1779	10.2287
38.7352	10.417
42.6877	10.4797
46.6403	10.5425
50.5929	10.5425
54.1502	10.6052
58.1028	10.5425
62.0553	10.4797
66.0079	10.417
69.9605	10.3542
73.5178	10.2287
77.4704	10.1659
81.0277	10.0404
84.9802	9.91494
88.5375	9.72668
92.4901	9.60117
96.0474	9.41292
99.2095	9.22466
