Adsorption isotherm of Methane on Mg-MOF-74
DOI: 10.1021/Ja307076t
Adsorbate Methane: InChIKey VNWKTOKETHGBQD-UHFFFAOYSA-N
Temperature: 179 K
Tabular data in the source: 0
pressure (bar)	uptake (mmol/g)
3.98773	0.313205
6.74847	0.728179
9.20245	1.0398
12.2699	1.45509
14.7239	2.07582
17.4847	2.49079
20.5521	3.11214
22.3926	3.52617
24.2331	3.83716
26.0736	4.56028
28.2209	5.18069
30.0613	5.90381
31.5951	6.62662
33.7423	7.65915
34.0491	8.99889
34.6626	10.8541
35.2761	22.0852
35.5828	24.8674
