Adsorption isotherm of Methane on Mg-MOF-74
DOI: 10.1021/Ja307076t
Adsorbate Methane: InChIKey VNWKTOKETHGBQD-UHFFFAOYSA-N
Temperature: 298 K
Tabular data in the source: 0
pressure (bar)	uptake (mmol/g)
7.11462	0.0627528
14.2292	0.0627528
20.1581	0.125506
27.2727	0.188258
32.8063	0.251011
36.7589	0.251011
40.7115	0.251011
44.664	0.313764
48.6166	0.313764
52.5692	0.313764
56.5217	0.376517
60.4743	0.376517
64.4269	0.376517
67.9842	0.376517
71.9368	0.439269
75.8893	0.439269
79.8419	0.439269
83.7945	0.502022
87.747	0.502022
91.6996	0.502022
95.6522	0.502022
99.2095	0.502022
