Adsorption isotherm of Methane on Mg-MOF-74
DOI: 10.1021/Ja307076t
Adsorbate Methane: InChIKey VNWKTOKETHGBQD-UHFFFAOYSA-N
Temperature: 343 K
Tabular data in the source: 0
pressure (bar)	uptake (mmol/g)
6.44172	0.00663705
11.0429	0.11441
14.1104	0.117571
17.4847	0.224079
21.4724	0.33122
24.5399	0.437413
28.5276	0.544554
31.9018	0.651063
34.9693	0.757255
38.3436	0.863764
42.0245	0.970589
45.7055	1.07741
48.4663	1.28632
51.5337	1.39252
55.2147	1.49934
58.589	1.70888
61.9632	1.81539
65.0307	1.92158
68.4049	2.02809
71.7791	2.34066
74.8466	2.44686
78.8344	2.554
82.2086	2.66051
84.9693	2.86942
88.3436	2.97592
91.411	3.18515
95.092	3.29197
97.2393	3.39722
98.4663	3.50152
