Adsorption isotherm of Methane on Mg-MOF-74
DOI: 10.1021/Ja307076t
Adsorbate Methane: InChIKey VNWKTOKETHGBQD-UHFFFAOYSA-N
Temperature: 298 K
Tabular data in the source: 0
pressure (bar)	uptake (mmol/g)
0.30581	0.937712
1.22324	1.53505
2.75229	3.58171
3.97554	4.34975
5.19878	5.1178
7.03364	5.80115
8.8685	6.48449
10.7034	7.16784
12.844	7.76623
15.2905	8.27965
17.737	8.70785
20.4893	9.13631
23.5474	9.39458
26.2997	9.65259
29.3578	9.91087
32.1101	9.99844
35.1682	10.1715
38.2263	10.2593
40.9786	10.4321
44.0367	10.4347
47.0948	10.5225
50.1529	10.5252
53.211	10.5278
56.2691	10.5304
59.3272	10.533
62.3853	10.4504
65.4434	10.453
68.1957	10.3701
71.2538	10.2875
74.3119	10.2048
77.37	10.1222
80.1223	10.0394
83.1804	9.95674
86.2385	9.7889
89.2966	9.70628
92.0489	9.62341
95.107	9.54079
98.1651	9.37295
