Adsorption isotherm of Methane on Mg-MOF-74
DOI: 10.1021/Ja307076t
Adsorbate Methane: InChIKey VNWKTOKETHGBQD-UHFFFAOYSA-N
Temperature: 179 K
Tabular data in the source: 0
pressure (bar)	uptake (mmol/g)
0.00157627	0.335928
0.00375708	0.895808
0.00617647	1.56766
0.0089683	2.12754
0.0119928	2.7994
0.0160332	3.35928
0.0205674	3.91916
0.027503	4.59102
0.035272	5.03892
0.0512165	5.5988
0.0743858	6.27066
0.103613	6.71856
0.144325	7.16647
0.185094	7.61437
0.304438	8.51018
0.390728	9.29401
0.567484	9.96587
0.85938	10.8617
1.24814	11.5335
1.73857	11.9814
2.32429	12.5413
3.10502	12.7653
4.69634	13.1012
6.54003	13.4371
9.10525	13.6611
12.6736	13.7731
16.9266	13.885
22.6011	13.885
31.4116	13.3251
