Adsorption isotherm of Methane on Mg-MOF-74
DOI: 10.1021/Ja307076t
Adsorbate Methane: InChIKey VNWKTOKETHGBQD-UHFFFAOYSA-N
Temperature: 283 K
Tabular data in the source: 0
pressure (bar)	uptake (mmol/g)
1.17172	0.589284
2.34344	1.17857
4.30883	1.76727
6.27656	2.28219
8.24195	2.87089
10.212	3.31205
14.1593	3.97306
17.3198	4.41334
20.0859	4.78014
23.6457	5.14636
27.2078	5.4388
30.7676	5.80502
34.7313	5.94963
38.6926	6.16802
41.4657	6.31351
45.8262	6.45783
48.9962	6.60303
50.978	6.67533
52.9622	6.67387
54.5472	6.74647
56.529	6.81877
59.3092	6.74296
61.2887	6.88903
62.876	6.88786
65.6515	6.95958
67.2412	6.88464
68.8262	6.95724
70.4135	6.95607
73.189	7.02779
74.3795	7.02691
76.3637	7.02545
78.747	6.94992
81.1257	7.02194
82.7154	6.94699
84.6996	6.94553
86.6837	6.94407
88.6679	6.9426
90.6521	6.94114
92.2394	6.93997
94.2236	6.9385
97.0014	6.93646
98.5888	6.93528
99.3824	6.9347
