Adsorption isotherm of Methane on Mg-MOF-74
DOI: 10.1021/Ja307076t
Adsorbate Methane: InChIKey VNWKTOKETHGBQD-UHFFFAOYSA-N
Temperature: 179 K
Tabular data in the source: 0
pressure (bar)	uptake (mmol/g)
0.443546	13.7037
0.466292	11.8492
1.03873	15.0438
2.24679	16.2814
4.37859	17.0048
5.90004	17.6246
8.03311	18.245
10.7778	18.866
13.525	19.2809
16.2747	19.4898
19.334	19.39
22.3946	19.187
25.152	18.7778
27.606	18.1621
29.7542	17.5461
31.905	16.7241
33.1358	16.1071
34.3679	15.3872
