Adsorption isotherm of Methane on Mg-MOF-74
DOI: 10.1021/Ja307076t
Adsorbate Methane: InChIKey VNWKTOKETHGBQD-UHFFFAOYSA-N
Temperature: 283 K
Tabular data in the source: 0
pressure (bar)	uptake (mmol/g)
1.49997	2.37129
2.09894	3.40223
2.69792	4.43317
3.90977	5.3617
5.12163	6.29024
6.64055	7.11607
8.46528	7.9422
10.5958	8.76866
13.0372	9.1833
15.4773	9.70098
18.2246	10.1159
21.2788	10.4282
24.0273	10.7401
27.0828	10.9493
29.8326	11.1582
32.8894	11.2644
35.6404	11.3703
38.6984	11.3734
41.7552	11.4796
44.5075	11.4824
47.5668	11.3826
50.6249	11.3857
53.6829	11.3889
56.7423	11.289
59.8016	11.1891
62.5551	11.0889
65.6145	10.989
68.6738	10.8891
71.7331	10.7893
74.4879	10.586
77.546	10.5892
80.2995	10.489
80.9124	10.3866
83.9717	10.2867
86.7265	10.0835
89.7858	9.9836
92.8464	9.78069
95.6012	9.57747
98.6605	9.47759
