Adsorption isotherm of Methane on Mg-MOF-74
DOI: 10.1021/Ja307076t
Adsorbate Methane: InChIKey VNWKTOKETHGBQD-UHFFFAOYSA-N
Temperature: 179 K
Tabular data in the source: 0
pressure (bar)	uptake (mmol/g)
0.30581	0.30581
0.611621	9.80115
0.917431	10.398
2.14067	11.5069
3.0581	12.2747
4.28135	12.9575
6.42202	13.4707
7.64526	13.5569
9.78593	13.644
10.3976	13.7297
13.4557	13.8176
16.8196	13.9057
19.5719	13.8228
20.4893	13.7383
22.9358	13.7404
23.8532	13.656
25.9939	13.2317
28.1346	13.5744
29.052	13.2343
31.1927	13.6622
