Adsorption isotherm of Methane on Mg-MOF-74
DOI: 10.1021/Ja307076t
Adsorbate Methane: InChIKey VNWKTOKETHGBQD-UHFFFAOYSA-N
Temperature: 179 K
Tabular data in the source: 0
pressure (bar)	uptake (mmol/g)
0.725343	15.6616
2.243	16.5905
3.45991	17.1069
4.06647	17.5196
5.28211	18.1391
6.80483	18.6558
7.71719	19.0689
8.93284	19.6883
10.1523	19.9987
11.3692	20.5151
12.5886	20.8255
14.1126	21.2392
15.6366	21.6529
18.0805	21.8614
18.3825	22.1708
21.4355	22.5861
23.8782	22.8977
26.0163	23.106
27.5453	23.1076
29.0718	23.3152
32.1286	23.4214
35.1854	23.5276
38.5481	23.6341
42.2139	23.9469
