Adsorption isotherm of Hydrogen on h-C800
DOI: 10.1039/c5cc04230e
Article source: Figure 6b
Adsorbate Hydrogen: InChIKey UFHFLCQGNIYNRP-UHFFFAOYSA-N
Kind: experiment
Temperature: 77 K
Tabular data in the source: 0
pressure (bar)	uptake (cm3(STP)/g)
0.003937	13.9896
0.015748	31.7098
0.023622	42.9016
0.03937	55.0259
0.047244	62.487
0.07874	76.4767
0.090551	83.9378
0.106299	87.6684
0.122047	90.4663
0.129921	94.1969
0.145669	96.9948
0.165354	104.456
0.192913	109.119
0.216535	113.782
0.240157	118.446
0.267717	121.244
0.291339	125.907
0.318898	128.705
0.34252	132.435
0.358268	134.301
0.389764	138.031
0.413386	139.896
0.440945	141.762
0.46063	143.627
0.5	146.425
0.519685	148.29
0.53937	149.223
0.566929	151.088
0.590551	152.953
0.61811	154.819
0.641732	155.751
0.669291	156.684
0.688976	158.549
0.724409	159.482
0.73622	161.347
0.767717	161.347
0.787402	162.28
0.818898	165.078
0.838583	165.078
0.866142	165.078
0.889764	166.01
0.917323	166.943
0.940945	166.943
0.96063	167.876
0.968504	167.876
0.992126	168.808
