Adsorption isotherm of Carbon Dioxide on h-C800
DOI: 10.1039/c5cc04230e
Article source: Figure 6a
Adsorbate Carbon Dioxide: InChIKey CURLTUGMZLYLDI-UHFFFAOYSA-N
Kind: experiment
Temperature: 298 K
Tabular data in the source: 0
pressure (bar)	uptake (cm3(STP)/g)
0.012097	2.15054
0.016129	2.15054
0.044355	5.91398
0.084677	10.7527
0.108871	13.4409
0.112903	12.9032
0.133065	15.5914
0.157258	17.2043
0.173387	17.7419
0.177419	19.3548
0.197581	19.3548
0.209677	21.5054
0.221774	20.9677
0.229839	22.5806
0.241935	23.1183
0.258065	24.7312
0.270161	24.7312
0.282258	26.3441
0.318548	27.4194
0.330645	29.5699
0.383065	32.7957
0.435484	34.9462
0.483871	37.6344
0.516129	38.7097
0.532258	40.3226
0.568548	40.8602
0.580645	42.4731
0.620968	43.5484
0.633065	44.6237
0.681452	47.3118
0.729839	48.3871
0.782258	50.5376
0.818548	52.1505
0.826613	52.6882
0.870968	53.2258
0.883065	54.3011
0.919355	55.3763
0.955645	55.914
0.967742	56.9892
0.991935	57.5269
