Adsorption isotherm of Carbon Dioxide on h-C800
DOI: 10.1039/c5cc04230e
Article source: Figure 6a
Adsorbate Carbon Dioxide: InChIKey CURLTUGMZLYLDI-UHFFFAOYSA-N
Kind: experiment
Temperature: 273 K
Tabular data in the source: 0
pressure (bar)	uptake (cm3(STP)/g)
0.032258	9.67742
0.052419	13.4409
0.084677	18.8172
0.108871	23.1183
0.133065	26.3441
0.16129	29.5699
0.181452	32.7957
0.205645	35.4839
0.233871	38.172
0.241935	38.172
0.258065	40.8602
0.266129	40.3226
0.28629	44.086
0.314516	45.6989
0.33871	48.9247
0.358871	50
0.391129	52.6882
0.41129	53.7634
0.435484	56.9892
0.46371	58.0645
0.487903	60.7527
0.516129	61.2903
0.53629	64.5161
0.564516	65.0538
0.58871	68.2796
0.612903	68.8172
0.633065	71.5054
0.665323	72.043
0.681452	74.1935
0.717742	75.2688
0.737903	77.4194
0.78629	80.1075
0.818548	81.7204
0.834677	82.7957
0.870968	84.4086
0.887097	86.0215
0.915323	86.5591
0.931452	88.7097
0.955645	89.7849
0.967742	89.7849
0.991935	90.8602
