Adsorption isotherm of Nitrogen on h-C800
DOI: 10.1039/c5cc04230e
Article source: Figure S11
Adsorbate Nitrogen: InChIKey IJGRMHOSHXDMSA-UHFFFAOYSA-N
Kind: experiment
Temperature: 77 K
Tabular data in the source: 0
pressure (bar)	uptake (cm3(STP)/g)
0	13.8931
0.000899	59.5802
0.002515	55.0382
0.002658	42.2137
0.002816	28.0534
0.007099	64.9237
0.010196	67.8626
0.018045	65.7252
0.024275	68.3969
0.035178	72.9389
0.044589	71.0687
0.061791	72.1374
0.063329	74.542
0.074302	72.9389
0.09151	73.4733
0.102432	76.4122
0.107154	74.0076
0.111816	76.9466
0.119668	74.542
0.129048	75.3435
0.138405	78.2824
0.138435	75.6107
0.152513	76.145
0.163435	79.084
0.163468	76.145
0.177541	77.2137
0.191601	79.3511
0.199447	77.4809
0.219785	78.0153
0.238562	78.2824
0.24323	80.687
0.257332	79.084
0.29019	79.6183
0.299556	81.7557
0.310528	80.1527
0.338691	80.687
0.340229	83.0916
0.359024	81.7557
0.380927	82.2901
0.396552	84.4275
0.40909	82.8244
0.44038	83.626
0.44974	86.2977
0.460715	84.4275
0.481056	84.6947
0.499743	92.9771
0.510778	85.7634
0.53112	86.0305
0.552927	95.1145
0.560848	86.5649
0.581183	87.3664
0.593607	95.916
0.610905	88.4351
0.6468	97.2519
0.660965	90.0382
0.681301	90.8397
0.701558	98.5878
0.712594	91.374
0.742229	100.191
0.76108	93.7786
0.792367	94.8473
0.796984	101.794
0.83147	96.7176
0.850165	104.198
0.862739	99.3893
0.890881	101.794
0.903323	108.74
0.928383	106.87
0.950176	117.29
0.959601	114.084
0.975134	124.504
0.978288	122.366
0.993818	133.053
