Adsorption isotherm of Nitrogen on h-C800
DOI: 10.1039/c5cc04230e
Article source: Figure 5a
Adsorbate Nitrogen: InChIKey IJGRMHOSHXDMSA-UHFFFAOYSA-N
Kind: experiment
Temperature: 77 K
Tabular data in the source: 0
pressure (bar)	uptake (cm3(STP)/g)
0.004049	0.004049
0.008097	323.596
0.012146	235.955
0.016194	357.303
0.020243	377.528
0.032389	401.124
0.044534	414.607
0.060729	441.573
0.076923	451.685
0.089069	455.056
0.101215	461.798
0.109312	465.169
0.121457	468.539
0.125506	468.539
0.149798	471.91
0.153846	471.91
0.17004	475.281
0.178138	478.652
0.198381	482.022
0.214575	482.022
0.255061	485.393
0.267206	485.393
0.303644	492.135
0.319838	492.135
0.356275	495.506
0.40081	498.876
0.453441	502.247
0.497976	519.101
0.506073	508.989
0.554656	508.989
0.603239	515.73
0.647773	535.955
0.65587	522.472
0.704453	539.326
0.748988	542.697
0.757085	525.843
0.801619	529.213
0.805668	549.438
0.850202	535.955
0.898785	546.067
0.902834	562.921
0.947368	576.404
0.951417	566.292
0.967611	586.517
0.975709	579.775
0.983806	593.258
0.995951	603.371
