Adsorption isotherm of Nitrogen on SOMS-1.0TMA
DOI: 10.1007/s10450-017-9923-0
Article source: Figure S4
Adsorbate Nitrogen: InChIKey IJGRMHOSHXDMSA-UHFFFAOYSA-N
Kind: experiment
Temperature: 77 K
Tabular data in the source: 0
pressure (bar)	uptake (cm3(STP)/g)
0.000166	0
0.000166	6.32184
0.002649	15.5172
0.00596	22.9885
0.010099	27.0115
0.024172	35.6322
0.033278	38.5057
0.044868	41.3793
0.055629	44.8276
0.068047	47.1264
0.080464	48.8506
0.101159	52.8736
0.116888	55.1724
0.139239	58.046
0.159107	60.3448
0.179802	62.6437
0.202153	66.092
0.241061	69.5402
0.282452	73.5632
0.320531	77.5862
0.363578	82.1839
0.403313	86.2069
0.444704	90.8046
0.484439	95.4023
0.527486	101.149
0.564738	106.897
0.605301	113.218
0.645036	118.966
0.667387	122.989
0.687255	126.437
0.707123	131.034
0.726163	136.207
0.747686	141.954
0.767553	148.276
0.785765	154.023
0.807289	162.069
0.813911	164.943
0.823017	170.69
0.833779	175.287
0.843713	181.034
0.850335	184.483
0.858613	188.506
0.866892	194.253
0.873514	199.425
0.883448	208.046
0.900832	221.839
0.914905	236.782
0.919872	241.379
0.928978	255.747
0.936428	270.69
0.94719	295.402
0.95464	314.943
0.959607	327.012
0.965402	348.276
0.968713	364.368
0.97368	383.908
0.977819	400
0.981131	417.241
0.984442	433.333
0.98527	448.851
0.987753	461.494
0.989409	473.563
0.991064	486.207
0.991064	493.103
0.991892	506.322
0.995204	518.966
0.996031	528.161
0.397519	94.2529
0.407452	95.4023
0.448843	99.4253
0.484439	103.448
0.505135	106.897
0.525003	108.621
0.54487	110.92
0.567221	114.943
0.587917	117.241
0.608612	120.69
0.630963	123.563
0.648348	126.437
0.669871	130.46
0.690566	135.057
0.710434	139.08
0.729474	144.253
0.750169	150
0.770037	156.322
0.778315	159.195
0.792388	164.368
0.800666	167.241
0.812256	171.839
0.833779	182.759
0.838746	187.356
0.847852	191.954
0.853647	196.552
0.859441	202.299
0.871031	212.644
0.880965	222.989
0.884276	227.011
0.893382	237.931
0.896693	242.529
0.90166	249.425
0.907455	258.046
0.923183	286.782
0.943051	336.782
0.953813	381.034
0.959607	409.195
0.965402	438.506
0.972852	466.092
0.977819	493.103
0.984442	518.391
0.986925	521.839
0.987753	526.437
0.991064	532.184
0.996031	540.23
