Adsorption isotherm of Nitrogen on SOMS-0.6TMA
DOI: 10.1007/s10450-017-9923-0
Article source: Figure S3
Adsorbate Nitrogen: InChIKey IJGRMHOSHXDMSA-UHFFFAOYSA-N
Kind: experiment
Temperature: 77 K
Tabular data in the source: 0
pressure (bar)	uptake (cm3(STP)/g)
0	0.603622
0	8.4507
0.001747	16.2978
0.001747	24.7485
0.005241	30.7847
0.015723	40.4427
0.027078	46.4789
0.035813	50.7042
0.047169	54.326
0.05765	57.3441
0.069006	60.9658
0.080361	63.3803
0.102198	67.002
0.118795	70.6237
0.137138	73.6419
0.161596	77.2636
0.179066	79.6781
0.201777	82.6962
0.241084	88.1288
0.281264	93.5614
0.322318	98.3903
0.362499	103.823
0.404427	108.048
0.447228	114.085
0.487408	120.724
0.524095	126.761
0.568643	132.797
0.60795	140.04
0.648131	148.491
0.667347	152.716
0.687438	157.545
0.708402	163.581
0.729365	169.014
0.749456	175.654
0.767799	182.294
0.789636	190.141
0.809727	199.195
0.821082	204.024
0.828943	208.249
0.840299	214.286
0.850781	221.529
0.859516	228.169
0.870871	235.412
0.8831	246.278
0.890088	253.521
0.902317	265.594
0.911925	278.27
0.921533	291.549
0.931142	310.262
0.939877	327.163
0.951232	357.948
0.959094	379.678
0.966081	401.408
0.971322	421.932
0.977437	449.095
0.980057	467.203
0.980931	485.915
0.988792	502.817
0.991413	520.926
0.992286	534.205
0.997527	548.692
0.998401	557.746
0.40268	118.913
0.411414	120.121
0.450722	124.346
0.485661	129.779
0.503131	132.797
0.528462	137.626
0.548553	141.247
0.569516	144.266
0.589607	147.284
0.608823	151.509
0.631534	155.734
0.654245	160.563
0.672588	165.392
0.692679	170.221
0.716263	176.861
0.731986	182.897
0.75295	190.141
0.77304	196.781
0.781775	201.006
0.791383	205.835
0.800118	210.06
0.807106	213.682
0.814094	217.304
0.823702	224.547
0.835931	232.394
0.847287	240.845
0.856895	249.899
0.862136	255.936
0.867377	261.972
0.876112	274.044
0.878732	278.27
0.882226	282.495
0.890088	294.567
0.901443	313.883
0.911925	338.632
0.924154	379.074
0.934636	408.652
0.94075	436.419
0.950359	461.771
0.961714	485.312
0.970449	510.06
0.983551	537.223
0.985298	540.241
0.987045	545.674
0.989666	551.71
