Adsorption isotherm of Nitrogen on SOMS-0.3TMA
DOI: 10.1007/s10450-017-9923-0
Article source: Figure S2
Adsorbate Nitrogen: InChIKey IJGRMHOSHXDMSA-UHFFFAOYSA-N
Kind: experiment
Temperature: 77 K
Tabular data in the source: 0
pressure (bar)	uptake (cm3(STP)/g)
0.000312	0
0.001091	25.8342
0.001091	8.88052
0.001091	16.5501
0.001869	34.3111
0.004206	43.1916
0.009659	51.6685
0.016669	60.1453
0.027575	68.2185
0.034585	73.0624
0.042375	76.6954
0.050164	79.9247
0.059511	83.5576
0.064964	85.1722
0.073532	87.9978
0.081322	90.8235
0.101574	96.071
0.116374	100.108
0.137406	104.548
0.159216	109.795
0.181805	113.832
0.198942	117.869
0.23711	124.731
0.283068	132.4
0.322794	139.666
0.361741	145.721
0.404583	152.987
0.445867	160.657
0.487151	168.326
0.526878	176.399
0.56894	185.684
0.605551	194.564
0.646835	205.867
0.668645	212.325
0.688898	217.976
0.709929	225.646
0.728624	232.104
0.749655	240.178
0.769129	249.462
0.789382	259.553
0.810413	271.259
0.820539	277.314
0.832223	284.177
0.841571	291.442
0.852476	299.516
0.861044	307.992
0.873507	319.699
0.879739	325.754
0.889086	338.671
0.901549	352.395
0.921023	375.404
0.931928	389.128
0.941276	398.009
0.959191	410.522
0.983339	418.595
0.992686	420.614
1.00281	424.65
0.398352	164.693
0.412373	166.712
0.454436	176.399
0.480141	184.069
0.509741	189.72
0.529214	194.16
0.548688	198.601
0.570498	204.252
0.584519	208.288
0.597761	212.729
0.631256	223.224
0.652287	232.104
0.662414	236.948
0.677214	244.618
0.688119	250.269
0.698245	255.92
0.729403	276.103
0.752771	295.479
0.770687	315.662
0.775361	320.91
0.789382	337.46
0.799508	348.762
0.813529	373.385
0.822876	382.67
0.825992	385.899
0.831445	390.743
0.836118	393.165
0.844687	397.201
0.866497	402.045
0.887528	405.274
0.911676	408.1
0.934265	411.733
0.956076	415.366
0.966202	416.577
0.973991	417.788
0.984896	419.806
