Adsorption isotherm of Nitrogen on SOMS
DOI: 10.1007/s10450-017-9923-0
Article source: Figure S1
Adsorbate Nitrogen: InChIKey IJGRMHOSHXDMSA-UHFFFAOYSA-N
Kind: experiment
Temperature: 77 K
Tabular data in the source: 0
pressure (bar)	uptake (cm3(STP)/g)
0	0
0	7.86096
0	16.0963
0	25.8289
0.000926	35.1872
0.001852	44.5455
0.004631	54.6524
0.00741	64.7594
0.01204	74.492
0.020376	83.8503
0.027786	91.3369
0.033343	95.0802
0.0389	99.5722
0.046309	103.69
0.054645	107.807
0.061128	111.176
0.066686	113.422
0.071316	115.668
0.081505	119.786
0.101881	126.524
0.115774	131.016
0.13615	137.005
0.161157	143.369
0.179681	147.861
0.19913	153.102
0.238957	162.086
0.283414	171.444
0.320461	179.679
0.36214	189.037
0.403818	198.021
0.445497	207.38
0.489027	217.861
0.523296	226.471
0.566827	237.701
0.60758	249.305
0.648332	261.283
0.667782	267.647
0.688158	273.636
0.708534	281.123
0.72891	287.487
0.750213	294.599
0.769662	300.963
0.791891	306.578
0.81412	311.818
0.821529	314.439
0.831717	316.31
0.840053	317.807
0.855798	320.053
0.867838	321.551
0.8771	321.925
0.890993	323.422
0.903034	324.545
0.915074	325.294
0.926188	326.417
0.939155	326.791
0.953974	327.54
0.967867	328.663
0.98176	330.16
0.995652	332.406
1.00491	333.904
0.372328	204.385
0.468651	238.449
0.488101	278.503
0.492732	300.963
0.506625	306.203
0.527001	309.198
0.546451	311.07
0.565901	312.567
0.585351	313.69
0.606653	314.813
0.626103	315.936
0.647406	317.433
0.667782	318.182
0.687232	319.305
0.707608	320.428
0.72891	321.176
0.752065	322.674
0.771515	324.171
0.785408	324.171
0.800227	325.294
0.815046	325.294
0.828012	325.668
0.839127	326.043
0.855798	327.54
0.872469	327.54
0.890067	328.289
0.909517	329.412
0.924336	330.16
0.940081	330.909
0.955826	331.283
0.967867	332.032
0.978981	332.406
