Adsorption isotherm of Nitrogen on MIL-101(Al)
DOI: 10.1039/C3ta13589f
Adsorbate Nitrogen: InChIKey IJGRMHOSHXDMSA-UHFFFAOYSA-N
Temperature: 77 K
Tabular data in the source: 0
pressure (bar)	uptake (cm3(STP)/g)
0.0102265	484.783
0.020453	495.652
0.0374973	507.609
0.0477238	513.043
0.0579503	518.478
0.0715857	523.913
0.0886299	530.435
0.102265	534.783
0.126128	543.478
0.149989	548.913
0.17726	553.261
0.20453	559.783
0.23521	564.13
0.26248	566.304
0.29316	567.391
0.32384	568.478
0.337475	569.565
0.388608	570.652
0.439741	571.739
0.487464	571.739
0.531779	572.826
0.579503	573.913
0.627227	573.913
0.67836	573.913
0.726083	576.087
0.773807	576.087
0.82494	577.174
0.872664	578.261
0.916979	580.435
