Adsorption isotherm of Carbon monoxide on Ti/GO
DOI: 10.1039/C1cp21778j
Adsorbate Carbon monoxide: InChIKey UGFAIRIUMAVXCW-UHFFFAOYSA-N
Temperature: 298 K
Tabular data in the source: 0
pressure (bar)	uptake (mmol/g)
0.0968992	0.683134
0.484496	2.83945
1.00775	4.03569
1.51163	4.54896
1.95736	4.89137
2.5	5.23399
3.00388	5.34178
3.52713	5.57765
4.03101	5.60007
4.5155	5.70781
5.01938	5.87961
5.50388	6.0087
6.02713	6.13786
6.53101	6.26699
7.0155	6.39607
7.51938	6.50385
7.96512	6.52615
8.50775	6.54864
9.03101	6.5711
9.5155	6.57214
10.0388	6.65862
