Adsorption isotherm of Carbon Dioxide on Ti/GO
DOI: 10.1039/C1cp21778j
Adsorbate Carbon Dioxide: InChIKey CURLTUGMZLYLDI-UHFFFAOYSA-N
Temperature: 298 K
Tabular data in the source: 0
pressure (bar)	uptake (mmol/g)
0.193798	0.107121
0.581395	0.321363
0.988372	0.343573
1.49225	0.36599
2.0155	0.409789
2.53876	0.389564
3.02326	0.433281
3.56589	0.391756
4.03101	0.392749
4.53488	0.47919
5.05814	0.458966
5.52326	0.438617
6.00775	0.418309
6.53101	0.355402
7.03488	0.39916
7.53876	0.378894
8.06202	0.422693
8.56589	0.402427
9.03101	0.40342
9.55426	0.425878
10.0775	0.448336
