Adsorption isotherm of Nitrogen on Ti/GO
DOI: 10.1039/C1cp21778j
Adsorbate Nitrogen: InChIKey IJGRMHOSHXDMSA-UHFFFAOYSA-N
Temperature: 298 K
Tabular data in the source: 0
pressure (bar)	uptake (mmol/g)
0.984556	0.340426
1.46718	0.446809
2.02703	0.531915
2.49035	0.595745
2.99228	0.723404
3.53282	0.829787
3.99614	0.914894
4.51737	1.02128
5.01931	1.06383
5.52124	1.14894
6.00386	1.23404
6.5444	1.31915
6.98842	1.40426
7.50965	1.51064
7.99228	1.51064
8.49421	1.59574
8.99614	1.65957
9.47876	1.7234
10.0193	1.76596
