Adsorption isotherm of Carbon Dioxide on Ti/GO
DOI: 10.1039/C1cp21778j
Adsorbate Carbon Dioxide: InChIKey CURLTUGMZLYLDI-UHFFFAOYSA-N
Temperature: 298 K
Tabular data in the source: 0
pressure (bar)	uptake (mmol/g)
0.521236	0.319149
1.00386	0.553191
1.5251	0.787234
2.02703	1.08511
2.52896	1.31915
2.99228	1.59574
3.4749	1.82979
4.01544	2.04255
4.49807	2.2766
5.03861	2.44681
5.50193	2.6383
6.02317	2.74468
6.5251	2.95745
7.02703	3.10638
7.49035	3.14894
7.99228	3.2766
8.53282	3.3617
8.99614	3.38298
9.49807	3.53191
10	3.55319
