Adsorption isotherm of Carbon monoxide on Ti/GO
DOI: 10.1039/C1cp21778j
Adsorbate Carbon monoxide: InChIKey UGFAIRIUMAVXCW-UHFFFAOYSA-N
Temperature: 298 K
Tabular data in the source: 0
pressure (bar)	uptake (mmol/g)
0.03861	0.404255
0.540541	3.85106
1.04247	4.91489
1.50579	5.34043
1.98842	5.76596
2.50965	6.02128
2.99228	6.19149
3.53282	6.42553
4.01544	6.59574
4.51737	6.6383
5.03861	6.82979
5.52124	6.82979
6.00386	6.95745
6.50579	7.02128
7.02703	7.10638
7.50965	7.21277
8.01158	7.2766
8.53282	7.38298
9.01544	7.46809
9.47876	7.48936
10.0386	7.46809
