Adsorption isotherm of Methane on Ti/GO
DOI: 10.1039/C1cp21778j
Adsorbate Methane: InChIKey VNWKTOKETHGBQD-UHFFFAOYSA-N
Temperature: 298 K
Tabular data in the source: 0
pressure (bar)	uptake (mmol/g)
0.501931	0.276596
1.00386	0.255319
1.48649	0.340426
2.00772	0.382979
2.50965	0.425532
3.03089	0.510638
3.51351	0.595745
4.03475	0.659574
4.51737	0.723404
4.98069	0.808511
5.54054	0.87234
6.00386	0.914894
6.5251	1.02128
6.98842	1.08511
7.50965	1.14894
8.03089	1.19149
8.49421	1.23404
8.99614	1.29787
9.47876	1.31915
10	1.40426
