Adsorption isotherm of Sulfur dioxide on NOTT-202a
DOI: 10.1021/Ja401061m
Adsorbate Sulfur dioxide: InChIKey RAHZWNYVWXNFOC-UHFFFAOYSA-N
Temperature: 283 K
Tabular data in the source: 0
pressure (bar)	uptake (mmol/g)
0.00581529	0.0352526
0.0108153	0.688586
0.0208153	1.20192
0.0441486	2.36859
0.0608153	3.88525
0.0708153	5.07525
0.0858153	5.93859
0.115815	6.49859
0.147482	6.94192
0.204149	7.43192
0.250815	7.68859
0.344149	8.15525
0.452482	8.50525
0.544149	8.87859
0.645815	9.15859
0.705815	9.36859
0.749149	9.78859
0.800815	10.3019
0.850815	10.6286
0.897482	10.9319
0.949149	11.1886
0.995815	11.5386
