Adsorption isotherm of Methane on NOTT-202a
DOI: 10.1021/Ja401061m
Adsorbate Methane: InChIKey VNWKTOKETHGBQD-UHFFFAOYSA-N
Temperature: 273 K
Tabular data in the source: 0
pressure (bar)	uptake (mmol/g)
0.00414863	-0.0114141
0.0491486	0.0119192
0.110815	0.0119192
0.190815	0.0585859
0.272482	0.0585859
0.322482	0.175253
0.410815	0.221919
0.514149	0.291919
0.612482	0.315253
0.714149	0.385253
0.804149	0.431919
0.907482	0.525253
1.00748	0.641919
