Adsorption isotherm of Sulfur dioxide on NOTT-202a
DOI: 10.1021/Ja401061m
Adsorbate Sulfur dioxide: InChIKey RAHZWNYVWXNFOC-UHFFFAOYSA-N
Temperature: 298 K
Tabular data in the source: 0
pressure (bar)	uptake (mmol/g)
0.00748196	0.57518
0.0258153	1.04185
0.0508153	1.60851
0.0808153	2.27518
0.105815	3.39185
0.145815	5.20851
0.199149	6.74185
0.250815	7.54185
0.294149	7.90851
0.354149	8.20851
0.404149	8.40851
0.450815	8.54185
0.502482	8.72518
0.547482	8.85851
0.604149	8.99185
0.697482	9.24185
0.804149	9.47518
0.899149	9.65851
0.957482	9.79185
0.980815	9.85851
