Adsorption isotherm of Argon on NOTT-202a
DOI: 10.1021/Ja401061m
Adsorbate Argon: InChIKey XKRFYHLGVUSROY-UHFFFAOYSA-N
Temperature: 273 K
Tabular data in the source: 0
pressure (bar)	uptake (mmol/g)
0.00748196	-0.0347474
0.0908153	0.0352526
0.304149	0.0119192
0.454149	0.0585859
0.552482	0.0585859
0.655815	0.105253
0.755815	0.0819192
0.857482	0.128586
0.954149	0.175253
1.00415	0.175253
