Adsorption isotherm of Sulfur dioxide on NOTT-202a
DOI: 10.1021/Ja401061m
Adsorbate Sulfur dioxide: InChIKey RAHZWNYVWXNFOC-UHFFFAOYSA-N
Temperature: 303 K
Tabular data in the source: 0
pressure (bar)	uptake (mmol/g)
0.00414863	0.22518
0.0258153	0.641847
0.0508153	1.17518
0.072482	1.69185
0.107482	2.39185
0.150815	3.74185
0.200815	5.65851
0.252482	6.99185
0.300815	7.72518
0.355815	8.22518
0.409149	8.54185
0.477482	8.80851
0.562482	9.04185
0.637482	9.25851
0.719149	9.45851
0.765815	9.55851
0.817482	9.65851
0.877482	9.74185
0.940815	9.87518
1.00415	10.0085
