Adsorption isotherm of Nitrogen on NOTT-202a
DOI: 10.1021/Ja401061m
Adsorbate Nitrogen: InChIKey IJGRMHOSHXDMSA-UHFFFAOYSA-N
Temperature: 273 K
Tabular data in the source: 0
pressure (bar)	uptake (mmol/g)
0.125643	0.0134808
0.148959	0.01376
0.198162	0.0742295
0.24868	0.0748345
0.298558	0.0514797
0.348421	0.076029
0.749295	0.176638
0.852941	0.117999
0.901532	0.070677
