Adsorption isotherm of Oxygen on NOTT-202a
DOI: 10.1021/Ja401061m
Adsorbate Oxygen: InChIKey MYMOFIZGZYHOMD-UHFFFAOYSA-N
Temperature: 273 K
Tabular data in the source: 0
pressure (bar)	uptake (mmol/g)
0.152838	0.0377585
0.200765	0.0383325
0.24998	0.062874
0.300494	0.075455
0.349069	0.0760368
0.400226	0.100602
0.450105	0.0772468
0.500622	0.0778518
0.54855	0.0784257
0.599052	0.126935
0.64957	0.12754
0.699425	0.176041
0.749299	0.164662
0.850979	0.177856
0.900197	0.190422
0.948132	0.167044
1.00122	0.22756
