Adsorption isotherm of Sulfur dioxide on NOTT-202a
DOI: 10.1021/Ja401061m
Adsorbate Sulfur dioxide: InChIKey RAHZWNYVWXNFOC-UHFFFAOYSA-N
Temperature: 273 K
Tabular data in the source: 0
pressure (bar)	uptake (mmol/g)
0.00414863	0.0119192
0.0191486	1.97192
0.0308153	3.13859
0.0308153	4.02525
0.0391486	5.07525
0.0508153	6.00859
0.0591486	6.28859
0.0758153	6.59192
0.0958153	6.82525
0.150815	7.33859
0.199149	7.80525
0.259149	8.13192
0.347482	8.64525
0.420815	9.04192
0.462482	9.39192
0.494149	10.0453
0.544149	10.5819
0.599149	11.0719
0.652482	11.4686
0.699149	11.8419
0.754149	12.2153
0.804149	12.4719
0.852482	12.7053
0.910815	12.9153
0.952482	13.0086
0.985815	13.1019
