Adsorption isotherm of Sulfur dioxide on NOTT-202a
DOI: 10.1021/Ja401061m
Adsorbate Sulfur dioxide: InChIKey RAHZWNYVWXNFOC-UHFFFAOYSA-N
Temperature: 293 K
Tabular data in the source: 0
pressure (bar)	uptake (mmol/g)
0.00414863	0.291847
0.0158153	0.758514
0.0358153	1.29185
0.0508153	1.84185
0.0658153	2.32518
0.072482	2.79185
0.0891486	3.14185
0.0958153	3.79185
0.102482	4.27518
0.152482	6.47518
0.202482	7.29185
0.244149	7.70851
0.300815	8.02518
0.364149	8.35851
0.429149	8.64185
0.505815	8.82518
0.579149	8.99185
0.652482	9.17518
0.759149	9.40851
0.854149	9.62518
0.942482	9.79185
1.01915	9.95851
