Adsorption isotherm of Sulfur dioxide on NOTT-202a
DOI: 10.1021/Ja401061m
Adsorbate Sulfur dioxide: InChIKey RAHZWNYVWXNFOC-UHFFFAOYSA-N
Temperature: 268 K
Tabular data in the source: 0
pressure (bar)	uptake (mmol/g)
0.00748196	0.0119192
0.00914863	1.57525
0.0191486	2.76525
0.0258153	4.37525
0.0391486	5.30859
0.042482	6.12525
0.057482	6.52192
0.0758153	6.77859
0.0958153	7.05859
0.155815	7.61859
0.207482	8.03859
0.260815	8.38859
0.309149	8.73859
0.340815	9.01859
0.370815	9.55525
0.399149	10.1386
0.440815	10.7453
0.490815	11.1653
0.550815	11.6553
0.600815	12.0753
0.650815	12.4953
0.704149	12.7286
0.754149	12.9153
0.794149	13.0786
0.852482	13.2653
0.899149	13.4053
0.950815	13.5219
0.994149	13.6619
