Adsorption isotherm of Hydrogen on NOTT-202a
DOI: 10.1021/Ja401061m
Adsorbate Hydrogen: InChIKey UFHFLCQGNIYNRP-UHFFFAOYSA-N
Temperature: 273 K
Tabular data in the source: 0
pressure (bar)	uptake (mmol/g)
0.00914863	-0.0114141
0.092482	-0.0347474
0.234149	-0.0347474
0.349149	-0.0114141
0.400815	0.0352526
0.509149	0.0119192
0.657482	0.0352526
0.749149	0.0585859
0.854149	0.0819192
0.902482	0.0352526
0.957482	0.105253
1.00248	0.151919
