Adsorption isotherm of Carbon Dioxide on NOTT-202a
DOI: 10.1021/Ja401061m
Adsorbate Carbon Dioxide: InChIKey CURLTUGMZLYLDI-UHFFFAOYSA-N
Temperature: 273 K
Tabular data in the source: 0
pressure (bar)	uptake (mmol/g)
0.00748196	0.0119192
0.0491486	0.128586
0.092482	0.198586
0.155815	0.338586
0.215815	0.408586
0.309149	0.665253
0.402482	0.828586
0.507482	1.06192
0.604149	1.24859
0.702482	1.57525
0.829149	1.85525
0.910815	2.06525
1.02415	2.39192
