Adsorption isotherm of Methane on Zeolite MFI Membrane
DOI: 10.1016/j.desal.2005.09.018
Adsorbate Methane: InChIKey VNWKTOKETHGBQD-UHFFFAOYSA-N
Temperature: 301 K
Tabular data in the source: 0
pressure (bar)	uptake (mmol/g)
0.100833	0.0524357
0.504385	0.266553
0.999782	0.488318
3.14816	1.08479
5.31231	1.39832
10.3202	1.82655
20.8722	2.27008
51.6234	3.01949
