Adsorption isotherm of Methane on Zeolite MFI Membrane
DOI: 10.1016/j.desal.2005.09.018
Adsorbate Methane: InChIKey VNWKTOKETHGBQD-UHFFFAOYSA-N
Temperature: 301 K
Tabular data in the source: 0
pressure (bar)	uptake (mmol/g)
1.49519	0.710083
2.14786	0.824789
51.6234	2.49185
102.327	2.64479
