Adsorption isotherm of Methane on Zeolite MFI Membrane
DOI: 10.1016/j.desal.2005.09.018
Adsorbate Methane: InChIKey VNWKTOKETHGBQD-UHFFFAOYSA-N
Temperature: 301 K
Tabular data in the source: 0
pressure (bar)	uptake (mmol/g)
0.0988242	0.0447887
0.514638	0.251259
1.04084	0.473024
3.02397	1.06949
5.10275	1.37538
10.3202	1.79597
20.8722	2.28538
52.6728	2.94302
