Adsorption isotherm of Methane on Zeolite MFI Membrane
DOI: 10.1016/j.desal.2005.09.018
Adsorbate Methane: InChIKey VNWKTOKETHGBQD-UHFFFAOYSA-N
Temperature: 301 K
Tabular data in the source: 0
pressure (bar)	uptake (mmol/g)
0.104974	0.0600828
0.514638	0.281847
1.04084	0.511259
3.08544	1.11538
4.90146	1.43655
10.53	1.86479
21.2965	2.36185
51.6234	3.21832
