Adsorption isotherm of Methane on Zeolite MFI Membrane
DOI: 10.1016/j.desal.2005.09.018
Adsorbate Methane: InChIKey VNWKTOKETHGBQD-UHFFFAOYSA-N
Temperature: 301 K
Tabular data in the source: 0
pressure (bar)	uptake (mmol/g)
0.0988242	0.0677298
0.494337	0.266553
1.04084	0.488318
3.02397	1.09244
5.20648	1.45185
10.3202	1.82655
20.4564	2.30832
51.6234	3.0042
