Adsorption isotherm of Nitrogen on MWNT-Pt Loaded
DOI: 10.1016/j.jssc.2010.08.035
Adsorbate Nitrogen: InChIKey IJGRMHOSHXDMSA-UHFFFAOYSA-N
Temperature: 77 K
Tabular data in the source: 0
pressure (bar)	uptake (cm3(STP)/g)
0.102857	78.2609
0.12	80.6324
0.162857	85.3755
0.177143	87.747
0.222857	94.8617
0.265714	101.976
0.302857	106.719
0.362857	116.206
0.402857	123.32
0.445714	128.063
0.482857	135.178
0.542857	144.664
0.562857	147.036
0.582857	151.779
0.62	158.893
0.642857	161.265
0.662857	166.008
0.682857	170.751
0.7	175.494
0.74	182.609
0.76	189.723
0.782857	196.838
0.8	203.953
0.822857	211.067
0.862857	232.411
0.882857	244.269
0.902857	260.87
0.922857	282.213
0.937143	305.929
0.96	360.474
0.977143	445.85
