Adsorption isotherm of Nitrogen on MWNT-Pt Loaded
DOI: 10.1016/j.jssc.2010.08.035
Adsorbate Nitrogen: InChIKey IJGRMHOSHXDMSA-UHFFFAOYSA-N
Temperature: 77 K
Tabular data in the source: 0
pressure (bar)	uptake (cm3(STP)/g)
0.00571429	52.1739
0.0342857	64.0316
0.0514286	68.7747
0.0742857	71.1462
0.1	75.8893
0.12	80.6324
0.142857	83.004
0.162857	85.3755
0.182857	87.747
0.2	92.4901
0.22	94.8617
0.262857	99.6047
0.282857	104.348
0.322857	113.834
0.345714	116.206
0.362857	120.949
0.382857	125.692
0.402857	125.692
0.422857	130.435
0.44	132.806
0.482857	142.292
0.502857	144.664
0.562857	156.522
0.66	175.494
0.682857	180.237
0.722857	192.095
0.762857	201.581
0.782857	211.067
0.802857	218.182
0.822857	227.668
0.842857	237.154
0.86	251.383
0.882857	265.613
0.902857	289.328
0.92	310.672
0.94	362.846
0.962857	443.478
0.977143	578.656
