Adsorption isotherm of Hydrogen on MWNT-Pt Loaded
DOI: 10.1016/j.jssc.2010.08.035
Adsorbate Hydrogen: InChIKey UFHFLCQGNIYNRP-UHFFFAOYSA-N
Temperature: 298 K
Tabular data in the source: 0
pressure (bar)	uptake (wt%)
1.17994	0.0099764
9.73451	0.0318053
16.2242	0.0556755
23.0088	0.0795398
29.7935	0.103404
36.5782	0.129268
43.0678	0.155139
50.1475	0.180997
56.9322	0.206861
63.7168	0.232726
70.5015	0.26059
77.2861	0.288454
83.7758	0.314324
90.5605	0.344189
95.2802	0.366094
