Adsorption isotherm of Nitrogen on MWNT-Pt Loaded
DOI: 10.1016/j.jssc.2010.08.035
Adsorbate Nitrogen: InChIKey IJGRMHOSHXDMSA-UHFFFAOYSA-N
Temperature: 77 K
Tabular data in the source: 0
pressure (bar)	uptake (cm3(STP)/g)
0.00285714	0.00285714
0.0142857	42.6877
0.0314286	47.4308
0.0514286	49.8024
0.0742857	52.1739
0.102857	56.917
0.114286	59.2885
0.14	61.6601
0.16	64.0316
0.202857	68.7747
0.222857	73.5178
0.242857	75.8893
0.28	80.6324
0.325714	85.3755
0.342857	90.1186
0.382857	92.4901
0.422857	99.6047
0.44	101.976
0.462857	106.719
0.482857	109.091
0.502857	111.462
0.542857	118.577
0.582857	123.32
0.62	132.806
0.662857	137.549
0.702857	147.036
0.722857	149.407
0.742857	154.15
0.76	161.265
0.782857	166.008
0.802857	175.494
0.822857	180.237
0.842857	189.723
0.862857	199.209
0.882857	211.067
0.902857	225.296
0.92	246.64
0.94	272.727
0.962857	322.53
0.974286	379.447
