Adsorption isotherm of Hydrogen on MWNT-Pt Loaded
DOI: 10.1016/j.jssc.2010.08.035
Adsorbate Hydrogen: InChIKey UFHFLCQGNIYNRP-UHFFFAOYSA-N
Temperature: 298 K
Tabular data in the source: 0
pressure (bar)	uptake (wt%)
1.17994	0.0059764
9.43953	0.0238112
16.5192	0.0436696
23.3038	0.0615339
29.4985	0.08141
36.2832	0.0992743
43.3628	0.121133
49.8525	0.141003
56.6372	0.162867
63.4218	0.180732
70.2065	0.202596
76.9912	0.22446
84.0708	0.244319
90.2655	0.266195
95.5752	0.284088
