Adsorption isotherm of Hydrogen on MWNT-Pt Loaded
DOI: 10.1016/j.jssc.2010.08.035
Adsorbate Hydrogen: InChIKey UFHFLCQGNIYNRP-UHFFFAOYSA-N
Temperature: 298 K
Tabular data in the source: 0
pressure (bar)	uptake (wt%)
1.47493	0.0119705
9.73451	0.0358053
16.2242	0.0636755
23.0088	0.0895398
29.7935	0.119404
36.5782	0.145268
43.3628	0.173133
50.1475	0.204997
56.9322	0.232861
63.7168	0.264726
70.2065	0.294596
76.9912	0.32446
83.7758	0.352324
90.5605	0.386189
95.5752	0.410088
