Adsorption isotherm of Hydrogen on MWNT-Pt Loaded
DOI: 10.1016/j.jssc.2010.08.035
Adsorbate Hydrogen: InChIKey UFHFLCQGNIYNRP-UHFFFAOYSA-N
Temperature: 298 K
Tabular data in the source: 0
pressure (bar)	uptake (wt%)
1.17994	0.0059764
9.73451	0.0198053
16.2242	0.0316755
23.0088	0.0435398
29.7935	0.0554041
36.5782	0.0672684
43.3628	0.0811327
50.1475	0.0949971
56.6372	0.108867
63.4218	0.122732
70.2065	0.138596
76.9912	0.15446
83.7758	0.174324
90.2655	0.188195
95.2802	0.208094
