Adsorption isotherm of Nitrogen on MWNT-Pt Loaded
DOI: 10.1016/j.jssc.2010.08.035
Adsorbate Nitrogen: InChIKey IJGRMHOSHXDMSA-UHFFFAOYSA-N
Temperature: 77 K
Tabular data in the source: 0
pressure (bar)	uptake (cm3(STP)/g)
0.0142857	33.2016
0.04	35.5731
0.06	37.9447
0.0857143	37.9447
0.102857	42.6877
0.122857	42.6877
0.142857	45.0593
0.162857	47.4308
0.182857	49.8024
0.202857	52.1739
0.222857	52.1739
0.245714	54.5455
0.26	56.917
0.3	61.6601
0.342857	64.0316
0.36	68.7747
0.442857	75.8893
0.48	83.004
0.522857	85.3755
0.542857	87.747
0.562857	92.4901
0.602857	94.8617
0.622857	99.6047
0.642857	101.976
0.662857	104.348
0.682857	109.091
0.702857	111.462
0.722857	116.206
0.74	118.577
0.762857	123.32
0.782857	128.063
0.802857	135.178
0.825714	139.921
0.842857	147.036
0.862857	154.15
0.882857	163.636
0.9	177.866
0.922857	199.209
0.94	225.296
0.962857	272.727
0.977143	360.474
