Adsorption isotherm of Hydrogen on CMS 4A
DOI: 10.1016/j.ijhydene.2009.01.079
Article source: Table 3 (Figure  8)- Code11
Adsorbate Hydrogen: InChIKey UFHFLCQGNIYNRP-UHFFFAOYSA-N
Kind: experiment
Temperature: 294 K
Tabular data in the source: 1
pressure (bar)	uptake (wt%)
3	0.03
7	0.05
10	0.07
15	0.09
