Adsorption isotherm of Hydrogen on CMS 4A
DOI: 10.1016/j.ijhydene.2009.01.079
Article source: Table 1 (Figure  4)- Code1
Adsorbate Hydrogen: InChIKey UFHFLCQGNIYNRP-UHFFFAOYSA-N
Kind: experiment
Temperature: 77 K
Tabular data in the source: 1
pressure (bar)	uptake (wt%)
1	0.98
3	1.24
5	1.34
7	1.4
10	1.47
15	1.56
18	1.61
