Adsorption isotherm of Hydrogen on CMS 4A
DOI: 10.1016/j.ijhydene.2009.01.079
Article source: Table 1 (Figure  4)- Code3
Adsorbate Hydrogen: InChIKey UFHFLCQGNIYNRP-UHFFFAOYSA-N
Kind: experiment
Temperature: 77 K
Tabular data in the source: 1
pressure (bar)	uptake (wt%)
1	0.97
3	1.21
5	1.28
7	1.33
10	1.37
15	1.39
18	1.4
