Adsorption isotherm of Hydrogen on CMS 4A
DOI: 10.1016/j.ijhydene.2009.01.079
Article source: Table 3 (Figure  8)- Code6
Adsorbate Hydrogen: InChIKey UFHFLCQGNIYNRP-UHFFFAOYSA-N
Kind: experiment
Temperature: 301 K
Tabular data in the source: 1
pressure (bar)	uptake (wt%)
3	0.01
7	0.04
10	0.06
15	0.08
18	0.09
25	0.12
