Adsorption isotherm of Hydrogen on CMS 4A
DOI: 10.1016/j.ijhydene.2009.01.079
Article source: Table 3 (Figure  8)- Code3
Adsorbate Hydrogen: InChIKey UFHFLCQGNIYNRP-UHFFFAOYSA-N
Kind: experiment
Temperature: 298 K
Tabular data in the source: 1
pressure (bar)	uptake (wt%)
3	0.02
7	0.04
10	0.06
15	0.09
18	0.1
25	0.13
50	0.23
70	0.3
