Adsorption isotherm of Hydrogen on CMS 4A
DOI: 10.1016/j.ijhydene.2009.01.079
Article source: Table 3 (Figure  8)- Code1
Adsorbate Hydrogen: InChIKey UFHFLCQGNIYNRP-UHFFFAOYSA-N
Kind: experiment
Temperature: 293 K
Tabular data in the source: 1
pressure (bar)	uptake (wt%)
3	0.02
7	0.04
10	0.05
15	0.07
18	0.08
25	0.1
50	0.16
70	0.19
