Adsorption isotherm of Water on NH2-MIL-125
DOI: 10.1016/j.cattod.2012.08.014
Adsorbate Water: InChIKey XLYOFNOQVPJJNP-UHFFFAOYSA-N
Temperature: 298 K
Tabular data in the source: 0
pressure (bar)	uptake (cm3(STP)/g)
0.0137359	7.58114
0.0623608	25.887
0.108125	46.481
0.149599	64.7869
0.188213	94.5338
0.205375	136.866
0.211096	192.928
0.213956	281.024
0.215386	366.833
0.218246	459.506
0.221107	488.109
0.231118	516.712
0.25686	531.586
0.35983	557.9
0.482823	578.494
0.624407	597.944
0.743109	615.106
0.784583	620.826
0.838928	634.556
0.961921	658.582
