Adsorption isotherm of Carbon Dioxide on NH2-MIL-125
DOI: 10.1016/j.cattod.2012.08.014
Adsorbate Carbon Dioxide: InChIKey CURLTUGMZLYLDI-UHFFFAOYSA-N
Temperature: 303 K
Tabular data in the source: 0
pressure (bar)	uptake (mg/g)
0.063365	9.15874
0.14083	19.0179
0.223928	28.1728
0.30421	37.3278
0.383083	46.8348
0.445055	54.2292
0.50421	60.5672
0.564773	66.9052
0.625337	72.8911
0.690126	79.5813
0.750689	85.5672
0.826745	93.3137
0.928154	103.173
0.973224	107.75
1.02534	113.032
