Adsorption isotherm of Carbon Dioxide on NH2-MIL-125
DOI: 10.1016/j.cattod.2012.08.014
Adsorbate Carbon Dioxide: InChIKey CURLTUGMZLYLDI-UHFFFAOYSA-N
Temperature: 288 K
Tabular data in the source: 0
pressure (bar)	uptake (mg/g)
0.112661	28.1728
0.178858	41.5531
0.239421	54.5813
0.283083	63.3841
0.347872	76.4123
0.442238	94.37
0.530971	109.511
0.621112	124.652
0.709844	139.793
0.814069	154.933
0.914069	170.074
0.966182	177.469
1.01266	183.102
