Adsorption isotherm of Carbon Dioxide on MIL-125
DOI: 10.1016/j.cattod.2012.08.014
Adsorbate Carbon Dioxide: InChIKey CURLTUGMZLYLDI-UHFFFAOYSA-N
Temperature: 273 K
Tabular data in the source: 0
pressure (bar)	uptake (mg/g)
0.107027	14.4404
0.160548	24.6517
0.20421	32.7503
0.246464	41.201
0.301393	51.7644
0.346464	60.5672
0.407027	71.1306
0.499985	86.6235
0.5859	101.412
0.676041	117.257
0.742238	127.116
0.811252	138.384
0.911252	155.286
0.961957	163.384
1.01407	170.778
