Adsorption isotherm of Carbon Dioxide on MIL-125
DOI: 10.1016/j.cattod.2012.08.014
Adsorbate Carbon Dioxide: InChIKey CURLTUGMZLYLDI-UHFFFAOYSA-N
Temperature: 288 K
Tabular data in the source: 0
pressure (bar)	uptake (mg/g)
0.108435	10.5672
0.226745	23.9475
0.309844	32.7503
0.392942	43.3137
0.450689	50.0038
0.511252	55.9897
0.56759	62.6799
0.632379	70.0742
0.690126	77.1165
0.750689	82.3982
0.825337	90.4968
0.919703	100.708
0.978858	106.694
1.02393	111.624
