Adsorption isotherm of Nitrogen on MIL-125
DOI: 10.1016/j.cattod.2012.08.014
Adsorbate Nitrogen: InChIKey IJGRMHOSHXDMSA-UHFFFAOYSA-N
Temperature: 298 K
Tabular data in the source: 0
pressure (bar)	uptake (mg/g)
0.0211115	1.41226
0.0718157	1.76437
0.125337	1.76437
0.168999	1.76437
0.228154	1.41226
0.328154	1.76437
0.394351	2.4686
0.491534	2.82071
0.591534	2.4686
0.692943	3.17283
0.795759	3.87705
0.891534	4.58128
0.952097	4.58128
0.998576	4.58128
