Adsorption isotherm of Carbon Dioxide on MIL-125
DOI: 10.1016/j.cattod.2012.08.014
Adsorbate Carbon Dioxide: InChIKey CURLTUGMZLYLDI-UHFFFAOYSA-N
Temperature: 303 K
Tabular data in the source: 0
pressure (bar)	uptake (mg/g)
0.0746326	4.22916
0.153506	9.15874
0.238013	14.4404
0.315478	19.7221
0.425337	27.1165
0.514069	33.1024
0.609844	39.7925
0.668999	43.6658
0.750689	49.6517
0.829562	54.2292
0.943647	62.3278
0.987309	65.4968
1.03801	68.6658
