Adsorption isotherm of Carbon Dioxide on NH2-MIL-125
DOI: 10.1016/j.cattod.2012.08.014
Adsorbate Carbon Dioxide: InChIKey CURLTUGMZLYLDI-UHFFFAOYSA-N
Temperature: 273 K
Tabular data in the source: 0
pressure (bar)	uptake (mg/g)
0.0436467	17.9616
0.102802	35.9193
0.146464	47.539
0.184492	60.9193
0.247872	80.9897
0.308435	98.5954
0.392942	121.131
0.483083	144.018
0.574633	164.793
0.668999	183.102
0.763365	200.356
0.85914	215.849
0.957731	233.455
1.00562	240.145
