Adsorption isotherm of Water on MIL-125
DOI: 10.1016/j.cattod.2012.08.014
Adsorbate Water: InChIKey XLYOFNOQVPJJNP-UHFFFAOYSA-N
Temperature: 298 K
Tabular data in the source: 0
pressure (bar)	uptake (cm3(STP)/g)
0.0180263	1.86057
0.0623608	5.29291
0.125287	6.43703
0.262581	12.1576
0.289753	16.7341
0.311206	21.3105
0.326937	40.7605
0.3584	84.2368
0.382713	155.172
0.398444	244.413
0.414176	311.916
0.427047	326.789
0.495694	330.221
0.590084	334.798
0.680183	341.663
0.730238	342.807
0.796024	348.527
0.846079	350.815
0.888983	357.68
0.944759	374.842
