Adsorption isotherm of Carbon Dioxide on MIL-125
DOI: 10.1016/j.cattod.2012.08.014
Adsorbate Carbon Dioxide: InChIKey CURLTUGMZLYLDI-UHFFFAOYSA-N
Temperature: 298 K
Tabular data in the source: 0
pressure (bar)	uptake (mg/g)
0.114069	10.9193
0.264773	25.0038
0.350689	31.3418
0.418295	36.9756
0.476041	41.9052
0.533788	47.1869
0.597168	53.1728
0.656323	58.4545
0.719703	64.0883
0.77745	69.37
0.871816	77.1165
0.923928	81.694
0.971816	85.5672
1.02815	90.4968
