Adsorption isotherm of Carbon Dioxide on NH2-MIL-125
DOI: 10.1016/j.cattod.2012.08.014
Adsorbate Carbon Dioxide: InChIKey CURLTUGMZLYLDI-UHFFFAOYSA-N
Temperature: 298 K
Tabular data in the source: 0
pressure (bar)	uptake (mg/g)
0.0211115	6.34184
0.160548	28.1728
0.245055	40.8489
0.315478	50.3559
0.395759	60.9193
0.461957	70.0742
0.525337	77.8207
0.611252	89.4404
0.676041	97.8911
0.732379	104.581
0.809844	114.088
0.857731	120.074
0.961957	130.638
1.01548	135.567
