Adsorption isotherm of Nitrogen on NH2-MIL-125
DOI: 10.1016/j.cattod.2012.08.014
Adsorbate Nitrogen: InChIKey IJGRMHOSHXDMSA-UHFFFAOYSA-N
Temperature: 298 K
Tabular data in the source: 0
pressure (bar)	uptake (mg/g)
0.0154777	0.00381129
0.0985763	0.355924
0.201393	0.355924
0.302802	0.708037
0.398576	1.06015
0.450689	1.06015
0.553506	1.06015
0.605619	1.06015
0.705619	2.11649
0.757731	3.52494
0.857731	4.58128
0.911252	5.2855
1.01125	5.98973
