Adsorption isotherm of Phenol on Ag-CB
DOI: 10.1007/s11164-017-2874-y
Article source: Figure 6
Adsorbate Phenol: InChIKey ISWSIDIOOBJBQZ-UHFFFAOYSA-N
Kind: experiment
Temperature: 298 K
Tabular data in the source: 0
pressure (bar)	uptake (mg/g)
1.01325	0.0306
1.01325	0.9697
1.01325	1.9721
1.01325	3.39
1.01325	4.6246
1.01325	5.9088
