Adsorption isotherm of Cadmium(II) Ion, Water on 100 m2/L kaolinite
DOI: 10.1016/j.clay.2016.10.023
Article source: Figure 5
Adsorbate Cadmium(II) Ion: InChIKey WLZRMCYVCSSEQC-UHFFFAOYSA-N
Adsorbate Water: InChIKey XLYOFNOQVPJJNP-UHFFFAOYSA-N
Kind: experiment
Temperature: 298 K
Tabular data in the source: 0
pressure (bar)	Cadmium(II) Ion fraction	Cadmium(II) Ion uptake (micromoles/m2)	Water fraction	Water uptake (micromoles/m2)	total uptake (micromoles/m2)
1.01325	0.006656	0.01062			
1.01325	0.007179	0.00232			
1.01325	0.010352	0.02456			
1.01325	0.018402	0.05245			
1.01325	0.019195	0.04448			
1.01325	0.02738	0.07402			
1.01325	0.028773	0.05776			
1.01325	0.039803	0.10888			
1.01325	0.041544	0.09295			
1.01325	0.056482	0.10091			
1.01325	0.069543	0.18755			
1.01325	0.073394	0.14639			
