Adsorption isotherm of Myo-inositol Hexaphosphate, Water on 100 m2/L kaolinite
DOI: 10.1016/j.clay.2016.10.023
Article source: Figure 2
Adsorbate Myo-inositol Hexaphosphate: InChIKey IMQLKJBTEOYOSI-UHFFFAOYSA-N
Adsorbate Water: InChIKey XLYOFNOQVPJJNP-UHFFFAOYSA-N
Kind: experiment
Temperature: 298 K
Tabular data in the source: 0
pressure (bar)	Myo-inositol Hexaphosphate fraction	Myo-inositol Hexaphosphate uptake (micromoles/m2)	Water fraction	Water uptake (micromoles/m2)	total uptake (micromoles/m2)
1.01325	0.000345	0.01849			
1.01325	0.000469	0.01663			
1.01325	0.000689	0.03774			
1.01325	0.000756	0.01455			
1.01325	0.000967	0.03599			
1.01325	0.001139	0.03336			
1.01325	0.004719	0.09275			
1.01325	0.005456	0.08663			
1.01325	0.006279	0.07777			
1.01325	0.011715	0.119			
1.01325	0.011993	0.11704			
1.01325	0.012758	0.10829			
1.01325	0.02053	0.15007			
1.01325	0.021239	0.14274			
1.01325	0.03191	0.16899			
1.01325	0.043358	0.18627			
