Adsorption isotherm of Cadmium(II) Ion, Water on 100 m2/L kaolinite with 0.075 mM myo-inositol hexaphosphate
DOI: 10.1016/j.clay.2016.10.023
Article source: Figure 5
Adsorbate Cadmium(II) Ion: InChIKey WLZRMCYVCSSEQC-UHFFFAOYSA-N
Adsorbate Water: InChIKey XLYOFNOQVPJJNP-UHFFFAOYSA-N
Kind: experiment
Temperature: 298 K
Tabular data in the source: 0
pressure (bar)	Cadmium(II) Ion fraction	Cadmium(II) Ion uptake (micromoles/m2)	Water fraction	Water uptake (micromoles/m2)	total uptake (micromoles/m2)
1.01325	0.002962	0.01657			
1.01325	0.003758	0.09173			
1.01325	0.0043	0.08743			
1.01325	0.005562	0.18479			
1.01325	0.007442	0.27651			
1.01325	0.007984	0.26923			
1.01325	0.008959	1.09506			
1.01325	0.009557	0.42685			
1.01325	0.009907	1.08248			
1.01325	0.010519	0.83249			
1.01325	0.01055	0.59308			
1.01325	0.011188	0.5858			
