Adsorption isotherm of Myo-inositol Hexaphosphate, Water on 100 m2/L kaolinite
DOI: 10.1016/j.clay.2016.10.023
Article source: Figure 2
Adsorbate Myo-inositol Hexaphosphate: InChIKey IMQLKJBTEOYOSI-UHFFFAOYSA-N
Adsorbate Water: InChIKey XLYOFNOQVPJJNP-UHFFFAOYSA-N
Kind: experiment
Temperature: 298 K
Tabular data in the source: 0
pressure (bar)	Myo-inositol Hexaphosphate fraction	Myo-inositol Hexaphosphate uptake (micromoles/m2)	Water fraction	Water uptake (micromoles/m2)	total uptake (micromoles/m2)
1.01325	0.000239	0.04266			
1.01325	0.001799	0.12305			
1.01325	0.008069	0.15794			
1.01325	0.009045	0.14668			
1.01325	0.018233	0.17479			
1.01325	0.018779	0.1679			
1.01325	0.030925	0.17993			
1.01325	0.032561	0.16232			
1.01325	0.042065	0.2006			
1.01325	0.042745	0.19262			
