Adsorption isotherm of Cadmium(II) Ion, Water on 100 m2/L kaolinite with 0.075 mM myo-inositol hexaphosphate
DOI: 10.1016/j.clay.2016.10.023
Article source: Figure 5
Adsorbate Cadmium(II) Ion: InChIKey WLZRMCYVCSSEQC-UHFFFAOYSA-N
Adsorbate Water: InChIKey XLYOFNOQVPJJNP-UHFFFAOYSA-N
Kind: experiment
Temperature: 298 K
Tabular data in the source: 0
pressure (bar)	Cadmium(II) Ion fraction	Cadmium(II) Ion uptake (micromoles/m2)	Water fraction	Water uptake (micromoles/m2)	total uptake (micromoles/m2)
1.01325	0.001974	0.00664			
1.01325	0.003057	0.01826			
1.01325	0.003947	0.03552			
1.01325	0.005689	0.07402			
1.01325	0.007043	0.06008			
1.01325	0.009249	0.14473			
1.01325	0.010488	0.13411			
1.01325	0.013835	0.21544			
1.01325	0.01519	0.2005			
1.01325	0.020221	0.31867			
1.01325	0.021188	0.30274			
1.01325	0.026316	0.42656			
1.01325	0.026954	0.41959			
1.01325	0.032276	0.59419			
1.01325	0.032914	0.83154			
1.01325	0.032972	0.58822			
1.01325	0.035352	0.80166			
