Adsorption isotherm of Cadmium(II) Ion, Water on 100 m2/L kaolinite
DOI: 10.1016/j.clay.2016.10.023
Article source: Figure 5
Adsorbate Cadmium(II) Ion: InChIKey WLZRMCYVCSSEQC-UHFFFAOYSA-N
Adsorbate Water: InChIKey XLYOFNOQVPJJNP-UHFFFAOYSA-N
Kind: experiment
Temperature: 298 K
Tabular data in the source: 0
pressure (bar)	Cadmium(II) Ion fraction	Cadmium(II) Ion uptake (micromoles/m2)	Water fraction	Water uptake (micromoles/m2)	total uptake (micromoles/m2)
1.01325	0.001356	0.03543			
1.01325	0.001938	0.05862			
1.01325	0.002111	0.02848			
1.01325	0.002248	0.07683			
1.01325	0.002383	0.051			
1.01325	0.002965	0.09869			
1.01325	0.006548	0.17353			
1.01325	0.011177	0.23944			
1.01325	0.017491	0.34542			
1.01325	0.019484	0.32258			
1.01325	0.027481	0.41201			
1.01325	0.039331	0.519			
1.01325	0.03968	0.51536			
1.01325	0.048763	0.64851			
1.01325	0.056851	0.56012			
