Adsorption isotherm of Nitrogen on C26H28CuB2F8N4
DOI: 10.1039/C2cc35739a
Adsorbate Nitrogen: InChIKey IJGRMHOSHXDMSA-UHFFFAOYSA-N
Temperature: 77 K
Tabular data in the source: 0
pressure (bar)	uptake (mmol/g)
0.122271	0.00798595
0.196507	-4.44e-16
0.30786	0.00798595
0.355895	0.0479157
0.495633	0.0878455
0.550218	0.103817
0.593886	0.143747
0.637555	0.151733
0.68559	0.191663
0.735808	0.247564
0.779476	0.279508
0.829694	0.327424
0.875546	0.391312
0.919214	0.487143
0.965066	0.654848
