Adsorption isotherm of Carbon Dioxide on C26H28CuB2F8N4
DOI: 10.1039/C2cc35739a
Adsorbate Carbon Dioxide: InChIKey CURLTUGMZLYLDI-UHFFFAOYSA-N
Temperature: 273 K
Tabular data in the source: 0
pressure (bar)	uptake (mmol/g)
0.0438143	0.00581779
0.0927902	0.00608035
0.139176	0.0174948
0.198456	0.0233955
0.270625	0.0293653
0.337626	0.0464732
0.384011	0.0578877
0.417502	0.0748159
0.456167	0.0750232
0.476789	0.0751338
0.510286	0.0864791
0.569554	0.103546
0.595337	0.0981009
0.639145	0.109502
0.664915	0.115223
0.688108	0.12093
0.719028	0.132261
0.742227	0.132386
0.768004	0.132524
0.809234	0.143911
0.835004	0.149632
0.860781	0.14977
0.88398	0.149894
0.912322	0.161212
0.935509	0.172502
0.95613	0.172613
0.979323	0.17832
0.999944	0.178431
1.02571	0.184152
