Adsorption isotherm of Carbon Dioxide on C26H28CuB2F8N4
DOI: 10.1039/C2cc35739a
Adsorbate Carbon Dioxide: InChIKey CURLTUGMZLYLDI-UHFFFAOYSA-N
Temperature: 283 K
Tabular data in the source: 0
pressure (bar)	uptake (mmol/g)
0.0800982	0.00912546
0.341752	0.0273764
0.405831	0.10038
0.44855	0.136882
0.475249	0.282889
0.485929	0.438022
0.496609	0.593155
0.501949	0.675284
0.539328	0.894295
0.560687	0.958173
0.592727	1.02205
0.646126	1.11331
0.683505	1.18631
0.736904	1.24106
0.833021	1.36882
0.945159	1.49658
0.971858	1.53308
1.01458	1.56958
