Adsorption isotherm of Nitrogen on C26H28CuB2F8N4
DOI: 10.1039/C2cc35739a
Adsorbate Nitrogen: InChIKey IJGRMHOSHXDMSA-UHFFFAOYSA-N
Temperature: 273 K
Tabular data in the source: 0
pressure (bar)	uptake (mmol/g)
0.0960699	-0.00798595
0.133188	-0.00798595
0.209607	-0.00798595
0.279476	-0.00798595
0.325328	0.00798595
0.39738	0.00798595
0.475983	-4.44e-16
0.50655	-0.00798595
0.528384	-0.00798595
0.569869	-0.00798595
0.591703	-0.00798595
0.613537	-0.00798595
0.646288	-0.0159719
0.668122	-0.0159719
0.689956	-0.00798595
0.722707	-0.0159719
0.744541	-0.0159719
0.766376	-0.0159719
0.80131	-0.0159719
0.823144	-0.0159719
0.844978	-0.0159719
0.864629	-4.44e-16
0.971616	-0.00798595
