Adsorption isotherm of Carbon Dioxide on C26H28CuB2F8N4
DOI: 10.1039/C2cc35739a
Adsorbate Carbon Dioxide: InChIKey CURLTUGMZLYLDI-UHFFFAOYSA-N
Temperature: 273 K
Tabular data in the source: 0
pressure (bar)	uptake (mmol/g)
0.159791	0.0231882
0.226798	0.0347132
0.265444	0.0516691
0.29378	0.0685696
0.329842	0.0910945
0.363327	0.113606
0.396754	0.186362
0.409167	0.605146
0.439384	1.23617
0.452184	1.3144
0.472729	1.38151
0.498417	1.45981
0.526702	1.52137
0.562707	1.59414
0.596167	1.63898
0.629607	1.70057
0.663053	1.75658
0.696506	1.80701
0.766009	1.89112
0.796897	1.93037
0.825213	1.96402
0.861263	1.99771
0.930778	2.07066
0.964256	2.09875
0.995156	2.12683
1.03121	2.15494
