Adsorption isotherm of Carbon Dioxide on C26H28CuB2F8N4
DOI: 10.1039/C2cc35739a
Adsorbate Carbon Dioxide: InChIKey CURLTUGMZLYLDI-UHFFFAOYSA-N
Temperature: 268 K
Tabular data in the source: 0
pressure (bar)	uptake (mmol/g)
0.227505	0.0273763
0.263617	0.0273763
0.30334	0.0273763
0.353897	0.0456272
0.375564	0.109505
0.386397	0.237262
0.39362	0.328516
0.400842	0.5019
0.411676	0.848667
0.42612	1.24106
0.444176	1.4327
0.4839	1.64258
0.520011	1.71558
0.556123	1.78859
0.621125	1.90722
0.66807	1.98022
0.69696	2.02585
0.783628	2.15361
0.826963	2.19923
0.855852	2.24486
0.899186	2.28136
