Adsorption isotherm of Carbon Dioxide on C26H28CuB2F8N4
DOI: 10.1039/C2cc35739a
Adsorbate Carbon Dioxide: InChIKey CURLTUGMZLYLDI-UHFFFAOYSA-N
Temperature: 273 K
Tabular data in the source: 0
pressure (bar)	uptake (mmol/g)
0.0283482	0.00573487
0.0772798	0.0450775
0.128776	0.0955997
0.151938	0.129221
0.187981	0.168495
0.211148	0.196533
0.231738	0.224558
0.249757	0.246987
0.27034	0.280594
0.29093	0.308619
0.334674	0.375848
0.35268	0.409442
0.37327	0.437467
0.391276	0.471061
0.429852	0.549429
0.447858	0.583022
0.468442	0.61663
0.486454	0.644641
0.507056	0.6615
0.522478	0.700663
0.545671	0.706371
0.558508	0.751103
0.584279	0.756824
0.599707	0.790404
0.620309	0.807263
0.638328	0.829691
0.656334	0.863285
0.679526	0.868992
0.692377	0.902559
0.715576	0.902683
0.730998	0.941846
0.754191	0.947553
0.774787	0.969995
0.792799	0.998006
0.813408	1.00928
0.831413	1.04288
0.852035	1.04299
0.867457	1.08215
0.890643	1.09344
0.908643	1.13262
0.92668	1.1383
0.947282	1.15516
0.965288	1.18875
0.985903	1.19444
1.00392	1.21687
1.01165	1.21691
