Adsorption isotherm of Carbon Dioxide on C26H28CuB2F8N4
DOI: 10.1039/C2cc35739a
Adsorbate Carbon Dioxide: InChIKey CURLTUGMZLYLDI-UHFFFAOYSA-N
Temperature: 303 K
Tabular data in the source: 0
pressure (bar)	uptake (mmol/g)
0.119817	0.00912546
0.213958	0.0182509
0.3081	0.0273764
0.368008	0.0638782
0.427917	0.0912546
0.504942	0.136882
0.530617	0.20076
0.56485	0.319391
0.590525	0.447148
0.633317	0.556653
0.650433	0.593155
0.710342	0.666159
0.761692	0.730037
0.838717	0.793915
0.890067	0.848668
0.967092	0.912546
1.00132	0.958173
1.03556	0.994675
