Adsorption isotherm of Carbon Dioxide on C26H28CuB2F8N4
DOI: 10.1039/C2cc35739a
Adsorbate Carbon Dioxide: InChIKey CURLTUGMZLYLDI-UHFFFAOYSA-N
Temperature: 293 K
Tabular data in the source: 0
pressure (bar)	uptake (mmol/g)
0.176704	4.44e-16
0.271852	0.00912546
0.319427	0.0182509
0.380593	0.0365018
0.434964	0.0456273
0.502927	0.0912546
0.543705	0.146007
0.584483	0.319391
0.611668	0.60228
0.638853	0.730037
0.720409	0.839542
0.781576	0.912546
0.849539	0.994675
0.88352	1.0403
0.944687	1.11331
0.985465	1.14981
1.02624	1.19544
