Adsorption isotherm of Carbon Dioxide on C26H28CuB2F8N4
DOI: 10.1039/C2cc35739a
Adsorbate Carbon Dioxide: InChIKey CURLTUGMZLYLDI-UHFFFAOYSA-N
Temperature: 273 K
Tabular data in the source: 0
pressure (bar)	uptake (mmol/g)
0.227287	0.0273764
0.268612	0.0456273
0.305805	0.0638782
0.355395	0.109506
0.400852	0.191635
0.404985	0.410646
0.41325	0.730037
0.42978	1.04943
0.433912	1.25019
0.466972	1.37794
0.500032	1.4692
0.52896	1.5422
0.56202	1.58783
0.590947	1.65171
0.632273	1.69734
0.698392	1.80684
0.764512	1.8981
0.797573	1.9346
0.834765	1.9711
0.867825	2.01673
0.900885	2.0441
0.933945	2.08061
0.967005	2.10798
1.00006	2.13536
1.03312	2.15361
