Adsorption isotherm of Carbon Dioxide on C26H28CuB2F8N4
DOI: 10.1039/C2cc35739a
Adsorbate Carbon Dioxide: InChIKey CURLTUGMZLYLDI-UHFFFAOYSA-N
Temperature: 273 K
Tabular data in the source: 0
pressure (bar)	uptake (mmol/g)
0.195891	0.012216
0.368526	0.0745534
0.41488	0.113882
0.431949	0.97374
0.467897	1.09676
0.503915	1.15836
0.53992	1.23113
0.606807	1.34873
0.67629	1.4496
0.74578	1.54488
0.781817	1.58973
0.851319	1.67385
0.884791	1.70753
0.954293	1.79164
0.990349	1.81975
1.0264	1.85344
