Adsorption isotherm of Nitrogen on titanate-5
DOI: 10.1016/j.carbpol.2017.08.048
Article source: Figure 5b
Adsorbate Nitrogen: InChIKey IJGRMHOSHXDMSA-UHFFFAOYSA-N
Kind: experiment
Temperature: 77 K
Tabular data in the source: 0
pressure (bar)	uptake (cm3(STP)/g)
0.010264	27.6
0.015654	33.49
0.035939	42.54
0.056457	45.93
0.106734	53.83
0.15777	55.87
0.208837	62.69
0.256023	68.37
0.308366	71.77
0.358136	76.31
0.413063	79.13
0.458304	84.82
0.509371	91.64
0.561725	98.46
0.564308	101.31
0.614078	103
0.614727	109.28
0.636693	107.55
0.639936	113.83
0.663848	113.82
0.665155	120.1
0.688409	116.09
0.691013	125.79
0.713628	126.35
0.714935	132.63
0.740134	130.33
0.740803	141.75
0.762141	153.73
0.764705	138.31
0.789266	145.72
0.79189	166.27
0.813198	156.56
0.817129	187.39
0.839147	211.93
0.841011	172.53
0.865613	193.64
0.865653	250.3
0.890214	220.61
0.890893	307.84
0.915423	263.87
0.916963	404.58
0.966084	614.83
0.966804	448.74
1.0067	658.32
