Adsorption isotherm of Nitrogen on titanate-15
DOI: 10.1016/j.carbpol.2017.08.048
Article source: Figure 5d
Adsorbate Nitrogen: InChIKey IJGRMHOSHXDMSA-UHFFFAOYSA-N
Kind: experiment
Temperature: 77 K
Tabular data in the source: 0
pressure (bar)	uptake (cm3(STP)/g)
0.005826	23.145
0.010355	26.015
0.030093	31.962
0.050489	34.843
0.101941	39.623
0.150809	42.721
0.204531	45.624
0.251453	48.72
0.301618	50.731
0.354691	53.633
0.404856	56.435
0.406467	54.952
0.45566	59.731
0.456308	57.853
0.50777	64.809
0.508733	59.964
0.556314	68.994
0.557277	63.259
0.605851	66.452
0.606357	73.516
0.633593	76.046
0.634616	68.511
0.657738	79.515
0.658245	70.725
0.680333	73.408
0.68393	82.829
0.710132	76.724
0.711672	88.184
0.734278	79.408
0.735311	92.752
0.758423	98.105
0.760997	83.507
0.784625	104.715
0.787189	87.763
0.807737	91.073
0.809287	111.481
0.837019	98.784
0.838569	120.291
0.861164	107.277
0.862198	129.412
0.883263	115.297
0.886343	138.061
0.910995	127.403
0.913569	153.306
0.963399	198.236
0.964423	164.171
1.0009	246.454
