Adsorption isotherm of Nitrogen on titanate-10
DOI: 10.1016/j.carbpol.2017.08.048
Article source: Figure 5c
Adsorbate Nitrogen: InChIKey IJGRMHOSHXDMSA-UHFFFAOYSA-N
Kind: experiment
Temperature: 77 K
Tabular data in the source: 0
pressure (bar)	uptake (cm3(STP)/g)
0.050347	37.711
0.085324	40.464
0.121273	44.585
0.157861	48.316
0.262822	55.204
0.299085	59.325
0.334406	60.904
0.369069	62.874
0.40438	64.844
0.43807	67.401
0.475965	70.545
0.545493	76.484
0.581999	80.535
0.615416	83.653
0.652429	86.773
0.687892	92.065
0.724895	97.047
0.758291	102.959
0.778313	108.865
0.791171	108.87
0.817332	119.125
0.829694	116.957
0.859888	138.079
0.866656	128.148
0.897935	141.51
0.902312	174.728
0.93128	221.615
0.935819	166.049
0.95353	211.326
0.965689	364.118
1.00661	462.541
