Adsorption isotherm of Nitrogen on titanate-0
DOI: 10.1016/j.carbpol.2017.08.048
Article source: Figure 5a
Adsorbate Nitrogen: InChIKey IJGRMHOSHXDMSA-UHFFFAOYSA-N
Kind: experiment
Temperature: 77 K
Tabular data in the source: 0
pressure (bar)	uptake (cm3(STP)/g)
0.050347	54.22
0.091251	63.77
0.119804	68.17
0.156331	70.8
0.191571	73.93
0.228352	79.37
0.263845	81.99
0.300625	84.62
0.336899	88.52
0.373689	93.75
0.402212	96.38
0.439154	100.96
0.476745	104.25
0.478052	109.42
0.511114	117.87
0.512401	110.77
0.546101	113.4
0.546769	123.1
0.581756	121.21
0.583073	128.32
0.615466	124.5
0.616135	135.48
0.655013	132.96
0.657627	147.18
0.686149	149.16
0.687416	137.53
0.724378	148.57
0.725696	160.85
0.749689	166.7
0.762628	158.97
0.793136	182.28
0.7957	171.95
0.831365	184.92
0.833351	203.66
0.864457	203.06
0.867102	231.49
0.898846	228.31
0.903477	276.77
0.936508	267.13
0.940652	404.09
0.969722	353.75
0.97879	700.67
1.00299	815.69
