Adsorption isotherm of Carbon Dioxide on MMPF-7
DOI: 10.1039/C3ce41090k
Adsorbate Carbon Dioxide: InChIKey CURLTUGMZLYLDI-UHFFFAOYSA-N
Temperature: 273 K
Tabular data in the source: 0
pressure (bar)	uptake (wt%)
0.0198296	0.64776
0.0436747	1.20239
0.0714732	1.94224
0.0953182	2.49686
0.123137	3.14393
0.146983	3.69855
0.174863	4.06726
0.202745	4.43597
0.226631	4.80503
0.250537	5.0813
0.282391	5.54244
0.310314	5.72558
0.33422	6.00185
0.358128	6.27812
0.390024	6.5537
0.413931	6.82997
0.441832	7.10589
0.469755	7.28903
0.489666	7.56565
0.517588	7.74879
0.549505	7.93158
0.573433	8.11506
0.601355	8.2982
0.625282	8.48169
0.653204	8.66483
0.681127	8.84796
0.709048	9.0311
0.73697	9.21424
0.760919	9.30494
0.784846	9.48843
0.812768	9.67156
0.840711	9.76192
0.864638	9.9454
0.888566	10.1289
0.916507	10.2192
0.94443	10.4024
0.972352	10.5855
0.996301	10.6762
1.02422	10.8594
1.05217	10.9497
