Adsorption isotherm of Carbon Dioxide on MMPF-7
DOI: 10.1039/C3ce41090k
Adsorbate Carbon Dioxide: InChIKey CURLTUGMZLYLDI-UHFFFAOYSA-N
Temperature: 298 K
Tabular data in the source: 0
pressure (bar)	uptake (wt%)
0.0398241	0.553237
0.0716997	0.921598
0.0956271	1.10508
0.119513	1.47414
0.147436	1.65728
0.171342	1.93355
0.199264	2.11669
0.227145	2.48539
0.255088	2.57575
0.282989	2.85167
0.306916	3.03516
0.334839	3.21829
0.362761	3.40143
0.386688	3.58492
0.414631	3.67527
0.442553	3.85841
0.46648	4.04189
0.494402	4.22503
0.522345	4.31539
0.546272	4.49887
0.57022	4.58957
0.598143	4.77271
0.626085	4.86306
0.650033	4.95376
0.677955	5.1369
0.705898	5.22725
0.73382	5.41039
0.757768	5.50109
0.781696	5.68458
0.809637	5.77493
0.841575	5.86493
0.869518	5.95529
0.893467	6.04599
0.921408	6.13634
0.941363	6.22739
0.9733	6.31739
0.997247	6.40809
1.02517	6.59123
1.05311	6.68158
