Adsorption isotherm of Carbon Dioxide on MMPF-8
DOI: 10.1039/C3ce41090k
Adsorbate Carbon Dioxide: InChIKey CURLTUGMZLYLDI-UHFFFAOYSA-N
Temperature: 273 K
Tabular data in the source: 0
pressure (bar)	uptake (wt%)
0.00788655	0.463231
0.0237832	0.832983
0.0395769	1.66666
0.0673961	2.31372
0.095174	3.14636
0.123014	3.70064
0.146839	4.34805
0.174678	4.90233
0.202518	5.45661
0.226363	6.01124
0.250229	6.47308
0.278109	6.84179
0.309964	7.30293
0.33383	7.76477
0.36169	8.22627
0.385576	8.59532
0.413457	8.96403
0.437343	9.33309
0.465244	9.60901
0.493105	10.0705
0.520986	10.4392
0.544892	10.7155
0.572774	11.0842
0.59668	11.3605
0.624562	11.7292
0.652442	12.0979
0.67635	12.3742
0.70423	12.7429
0.728136	13.0191
0.752043	13.2954
0.78392	13.6638
0.807826	13.94
0.835727	14.216
0.863629	14.4919
0.891531	14.7678
0.919411	15.1365
0.943318	15.4128
0.97122	15.6887
0.995126	15.965
1.02303	16.2409
1.04694	16.5172
