Adsorption isotherm of Carbon Dioxide on MMPF-8
DOI: 10.1039/C3ce41090k
Adsorbate Carbon Dioxide: InChIKey CURLTUGMZLYLDI-UHFFFAOYSA-N
Temperature: 298 K
Tabular data in the source: 0
pressure (bar)	uptake (wt%)
0.0199326	0.183833
0.0438188	0.552889
0.0676843	1.01473
0.0955447	1.47622
0.123446	1.75215
0.151306	2.21364
0.175214	2.48991
0.19912	2.76618
0.227001	3.13489
0.254882	3.5036
0.278809	3.68709
0.306711	3.96301
0.334612	4.23893
0.362514	4.51486
0.390436	4.69799
0.414342	4.97426
0.442265	5.1574
0.466192	5.34089
0.494094	5.61681
0.518021	5.8003
0.545922	6.07622
0.573845	6.25936
0.601767	6.4425
0.625694	6.62598
0.653616	6.80912
0.681517	7.08504
0.709439	7.26818
0.733366	7.45167
0.757294	7.63515
0.785237	7.72551
0.809164	7.90899
0.841082	8.09178
0.865009	8.27527
0.888936	8.45875
0.916879	8.54911
0.944801	8.73224
0.972723	8.91538
0.99665	9.09887
1.02457	9.282
1.05251	9.37236
