Adsorption isotherm of Nitrogen on MOF-505
DOI: 10.1002/anie.200462787
Adsorbate Nitrogen: InChIKey IJGRMHOSHXDMSA-UHFFFAOYSA-N
Temperature: 77 K
Tabular data in the source: 0
pressure (bar)	uptake (mg/g)
0.00837971	3.12107
0.00837971	125.474
0.00837971	227.071
0.0171192	239.087
0.0367831	250.012
0.08922	257.659
0.281489	264.214
0.685691	272.953
1.03964	281.693
