Adsorption isotherm of Nitrogen on MOF-505
DOI: 10.1002/anie.200462787
Adsorbate Nitrogen: InChIKey IJGRMHOSHXDMSA-UHFFFAOYSA-N
Temperature: 77 K
Tabular data in the source: 0
pressure (bar)	uptake (mg/g)
0.00400996	340.684
0.00400996	382.197
0.00619484	292.617
0.00837971	429.171
0.0105646	4.21351
0.021489	458.667
0.0477074	472.869
0.100144	487.071
0.283674	516.566
1.04619	525.306
