Adsorption isotherm of Hydrogen on MOF-505
DOI: 10.1002/anie.200462787
Adsorbate Hydrogen: InChIKey UFHFLCQGNIYNRP-UHFFFAOYSA-N
Temperature: 77 K
Tabular data in the source: 0
pressure (bar)	uptake (wt%)
0.00619484	0.0156053
0.0105646	0.195857
0.0717411	0.479891
0.209388	0.834933
0.351405	1.02065
0.620144	1.25006
0.884514	1.35384
1.02216	1.40846
