Adsorption isotherm of Hydrogen on MOF-505
DOI: 10.1002/anie.200462787
Adsorbate Hydrogen: InChIKey UFHFLCQGNIYNRP-UHFFFAOYSA-N
Temperature: 77 K
Tabular data in the source: 0
pressure (bar)	uptake (wt%)
0.00619484	0.195857
0.0695562	0.643757
0.211573	1.10258
0.408212	1.46855
0.600481	1.66519
0.856111	1.85636
1.02435	1.94922
