Adsorption isotherm of Nitrogen on MOF-505
DOI: 10.1002/anie.200462787
Adsorbate Nitrogen: InChIKey IJGRMHOSHXDMSA-UHFFFAOYSA-N
Temperature: 77 K
Tabular data in the source: 0
pressure (bar)	uptake (mg/g)
0.00400996	281.693
0.00837971	311.188
0.0105646	323.205
0.0236738	329.76
0.0586318	349.424
0.0957747	355.978
0.290228	366.903
0.70317	376.735
1.03746	384.382
