Adsorption isotherm of Hydrogen on MOF-505
DOI: 10.1002/anie.200462787
Adsorbate Hydrogen: InChIKey UFHFLCQGNIYNRP-UHFFFAOYSA-N
Temperature: 77 K
Tabular data in the source: 0
pressure (bar)	uptake (wt%)
0.00837971	0.0101432
0.00837971	0.266866
0.0345982	0.632832
0.0782957	0.922328
0.132918	1.17905
0.272749	1.59964
0.395102	1.84544
0.541489	2.053
0.803674	2.33157
1.0025	2.48451
