Adsorption isotherm of Carbon Dioxide on MOF-508
DOI: 10.1080/01496390802282347
Adsorbate Carbon Dioxide: InChIKey CURLTUGMZLYLDI-UHFFFAOYSA-N
Temperature: 303 K
Tabular data in the source: 0
pressure (bar)	uptake (mmol/g)
0.657083	1.09621
1.00513	1.55431
1.34345	2.06645
