Adsorption isotherm of Nitrogen on MOF-508
DOI: 10.1080/01496390802282347
Adsorbate Nitrogen: InChIKey IJGRMHOSHXDMSA-UHFFFAOYSA-N
Temperature: 323 K
Tabular data in the source: 0
pressure (bar)	uptake (mmol/g)
0.121291	0.15
0.508282	0.3
1.04055	0.55
2.00828	1
3.04814	1.35
4.59627	2
