Adsorption isotherm of Nitrogen on MOF-508
DOI: 10.1080/01496390802282347
Adsorbate Nitrogen: InChIKey IJGRMHOSHXDMSA-UHFFFAOYSA-N
Temperature: 323 K
Tabular data in the source: 0
pressure (bar)	uptake (mmol/g)
0.664899	0.232143
1.01214	0.339286
1.31	0.464286
