Adsorption isotherm of Carbon Dioxide on MOF-508
DOI: 10.1080/01496390802282347
Adsorbate Carbon Dioxide: InChIKey CURLTUGMZLYLDI-UHFFFAOYSA-N
Temperature: 303 K
Tabular data in the source: 0
pressure (bar)	uptake (mmol/g)
0.496175	0.887292
1.02712	1.70829
2.0044	2.97827
