Adsorption isotherm of Carbon Dioxide, Nitrogen on MOF-508b
DOI: 10.1080/01496390802282347
Article source: Figure 4c
Adsorbate Carbon Dioxide: InChIKey CURLTUGMZLYLDI-UHFFFAOYSA-N
Adsorbate Nitrogen: InChIKey IJGRMHOSHXDMSA-UHFFFAOYSA-N
Kind: experiment
Temperature: 343 K
Tabular data in the source: 0
pressure (bar)	Carbon Dioxide fraction	Carbon Dioxide uptake (mmol/g)	Nitrogen fraction	Nitrogen uptake (mmol/g)	total uptake (mmol/g)
1.01101	0.5	0.418994	0.5	0.234979	
2.02983	0.5	0.72067	0.5	0.37334	
4.01571	0.5	1.34078	0.5	0.700632	
