Adsorption isotherm of Methane on MOF-508b
DOI: 10.1080/01496390802282347
Article source: Figure 3c
Adsorbate Methane: InChIKey VNWKTOKETHGBQD-UHFFFAOYSA-N
Kind: experiment
Temperature: 343 K
Tabular data in the source: 0
pressure (bar)	uptake (mmol/g)
0.104301	0.2
0.512043	0.44
0.996774	0.6
2.0443	1.04
3.0529	1.44
4.52667	1.96
