Adsorption isotherm of Carbon Dioxide on MOF-508b
DOI: 10.1080/01496390802282347
Article source: Table 4
Adsorbate Carbon Dioxide: InChIKey CURLTUGMZLYLDI-UHFFFAOYSA-N
Kind: experiment
Temperature: 343 K
Tabular data in the source: 1
pressure (bar)	uptake (mmol/g)
0.11	0.11
0.52	0.54
1.01	0.9
2.04	1.55
3.04	2.12
4.52	2.96
