Adsorption isotherm of Methane on MOF-508b
DOI: 10.1080/01496390802282347
Article source: Table 4
Adsorbate Methane: InChIKey VNWKTOKETHGBQD-UHFFFAOYSA-N
Kind: experiment
Temperature: 343 K
Tabular data in the source: 1
pressure (bar)	uptake (mmol/g)
0.12	0.13
0.53	0.36
1.05	0.59
2.05	0.95
2.96	1.13
4.52	1.84
