Adsorption isotherm of Carbon Dioxide on MOF-508b
DOI: 10.1080/01496390802282347
Article source: Figure 3a
Adsorbate Carbon Dioxide: InChIKey CURLTUGMZLYLDI-UHFFFAOYSA-N
Kind: experiment
Temperature: 303 K
Tabular data in the source: 0
pressure (bar)	uptake (mmol/g)
0.135135	0.24
0.482625	1
1.02317	1.84
2.04633	3.08
3.05019	4.28
4.53668	5.92
