Adsorption isotherm of Nitrogen on MOF-508b
DOI: 10.1080/01496390802282347
Article source: Figure 3b
Adsorbate Nitrogen: InChIKey IJGRMHOSHXDMSA-UHFFFAOYSA-N
Kind: experiment
Temperature: 323 K
Tabular data in the source: 0
pressure (bar)	uptake (mmol/g)
0.103656	0.2
0.549333	0.44
1.03363	0.64
2.06022	1
3.04817	1.4
4.52017	1.88
