Adsorption isotherm of Methane on MOF-508
DOI: 10.1080/01496390802282347
Adsorbate Methane: InChIKey VNWKTOKETHGBQD-UHFFFAOYSA-N
Temperature: 343 K
Tabular data in the source: 0
pressure (bar)	uptake (mmol/g)
0.486111	0.235294
1.05903	0.436975
2.01389	0.806723
