Adsorption isotherm of Carbon Dioxide, Methane on Zeolite 5A
DOI: 10.1080/01496390802282347
Article source: Figure 4d
Adsorbate Carbon Dioxide: InChIKey CURLTUGMZLYLDI-UHFFFAOYSA-N
Adsorbate Methane: InChIKey VNWKTOKETHGBQD-UHFFFAOYSA-N
Kind: experiment
Temperature: 303 K
Tabular data in the source: 0
pressure (bar)	Carbon Dioxide fraction	Carbon Dioxide uptake (mmol/g)	Methane fraction	Methane uptake (mmol/g)	total uptake (mmol/g)
0.996256	0.5	0.852306	0.5	0.286517	
2.03486	0.5	1.52892	0.5	0.488764	
4.02475	0.5	2.79931	0.5	0.893258	
