Adsorption isotherm of Carbon Dioxide, Nitrogen, Methane on MOF-508b
DOI: 10.1080/01496390802282347
Article source: Figure 5c
Adsorbate Carbon Dioxide: InChIKey CURLTUGMZLYLDI-UHFFFAOYSA-N
Adsorbate Nitrogen: InChIKey IJGRMHOSHXDMSA-UHFFFAOYSA-N
Adsorbate Methane: InChIKey VNWKTOKETHGBQD-UHFFFAOYSA-N
Kind: experiment
Temperature: 343 K
Tabular data in the source: 0
pressure (bar)	Carbon Dioxide fraction	Carbon Dioxide uptake (mmol/g)	Nitrogen fraction	Nitrogen uptake (mmol/g)	Methane fraction	Methane uptake (mmol/g)	total uptake (mmol/g)
2.00732	0.33	0.446429	0.33	0.251383	0.33	0.288612	
2.99651	0.33	0.616071	0.33	0.315926	0.33	0.35516	
4.03126	0.33	0.8125	0.33	0.43424	0.33	0.484579	
