Adsorption isotherm of Carbon Dioxide on MOF-508b
DOI: 10.1080/01496390802282347
Article source: Table 4
Adsorbate Carbon Dioxide: InChIKey CURLTUGMZLYLDI-UHFFFAOYSA-N
Kind: experiment
Temperature: 323 K
Tabular data in the source: 1
pressure (bar)	uptake (mmol/g)
0.1	0.14
0.47	0.67
1.04	1.28
2.03	2.13
3.06	2.96
4.51	3.95
