Adsorption isotherm of Carbon Dioxide on MOF-508
DOI: 10.1080/01496390802282347
Adsorbate Carbon Dioxide: InChIKey CURLTUGMZLYLDI-UHFFFAOYSA-N
Temperature: 303 K
Tabular data in the source: 0
pressure (bar)	uptake (mmol/g)
0.120773	0.251799
0.507246	0.906475
1.03865	1.76259
2.02899	3.07194
3.06763	4.33094
4.61353	5.84173
