Adsorption isotherm of Nitrogen on MOF-508
DOI: 10.1080/01496390802282347
Adsorbate Nitrogen: InChIKey IJGRMHOSHXDMSA-UHFFFAOYSA-N
Temperature: 303 K
Tabular data in the source: 0
pressure (bar)	uptake (mmol/g)
0.499073	0.215101
0.981051	0.396129
1.96268	0.65782
