Adsorption isotherm of Methane on MOF-508
DOI: 10.1080/01496390802282347
Adsorbate Methane: InChIKey VNWKTOKETHGBQD-UHFFFAOYSA-N
Temperature: 303 K
Tabular data in the source: 0
pressure (bar)	uptake (mmol/g)
0.170252	0.100719
0.535028	0.302158
1.02116	0.503597
1.99396	1.05755
3.06332	1.46043
4.57044	2.11511
