Adsorption isotherm of Carbon Dioxide, Nitrogen on MOF-508b
DOI: 10.1080/01496390802282347
Article source: Figure 4b
Adsorbate Carbon Dioxide: InChIKey CURLTUGMZLYLDI-UHFFFAOYSA-N
Adsorbate Nitrogen: InChIKey IJGRMHOSHXDMSA-UHFFFAOYSA-N
Kind: experiment
Temperature: 323 K
Tabular data in the source: 0
pressure (bar)	Carbon Dioxide fraction	Carbon Dioxide uptake (mmol/g)	Nitrogen fraction	Nitrogen uptake (mmol/g)	total uptake (mmol/g)
1.02896	0.5	0.566667	0.5	0.283333	
2.01353	0.5	0.966667	0.5	0.433333	
4.00945	0.5	1.9	0.5	0.816667	
