Adsorption isotherm of Carbon Dioxide, Nitrogen, Methane on MOF-508b
DOI: 10.1080/01496390802282347
Article source: Figure 5a
Adsorbate Carbon Dioxide: InChIKey CURLTUGMZLYLDI-UHFFFAOYSA-N
Adsorbate Nitrogen: InChIKey IJGRMHOSHXDMSA-UHFFFAOYSA-N
Adsorbate Methane: InChIKey VNWKTOKETHGBQD-UHFFFAOYSA-N
Kind: experiment
Temperature: 303 K
Tabular data in the source: 0
pressure (bar)	Carbon Dioxide fraction	Carbon Dioxide uptake (mmol/g)	Nitrogen fraction	Nitrogen uptake (mmol/g)	Methane fraction	Methane uptake (mmol/g)	total uptake (mmol/g)
1.9949	0.33	1.06512	0.33	0.25132	0.33	0.32	
3.00853	0.33	1.52317	0.33	0.324857	0.33	0.426667	
4.0169	0.33	2.017	0.33	0.371538	0.33	0.497778	
