Adsorption isotherm of Nitrogen on MOF-508b
DOI: 10.1080/01496390802282347
Article source: Table 4
Adsorbate Nitrogen: InChIKey IJGRMHOSHXDMSA-UHFFFAOYSA-N
Kind: experiment
Temperature: 343 K
Tabular data in the source: 1
pressure (bar)	uptake (mmol/g)
0.13	0.09
0.56	0.37
1.02	0.57
2.05	0.95
3.03	1.35
4.51	1.9
