Adsorption isotherm of Nitrogen on MOF-508b
DOI: 10.1080/01496390802282347
Article source: Table 4
Adsorbate Nitrogen: InChIKey IJGRMHOSHXDMSA-UHFFFAOYSA-N
Kind: experiment
Temperature: 323 K
Tabular data in the source: 1
pressure (bar)	uptake (mmol/g)
0.1	0
0.5	0
0.94	0
2.01	0
3.03	0
4.61	0
