Adsorption isotherm of Methane on MOF-508
DOI: 10.1080/01496390802282347
Adsorbate Methane: InChIKey VNWKTOKETHGBQD-UHFFFAOYSA-N
Temperature: 343 K
Tabular data in the source: 0
pressure (bar)	uptake (mmol/g)
0.676471	0.273897
1	0.366071
1.33333	0.47619
