Adsorption isotherm of Methane on MOF-508
DOI: 10.1080/01496390802282347
Adsorbate Methane: InChIKey VNWKTOKETHGBQD-UHFFFAOYSA-N
Temperature: 323 K
Tabular data in the source: 0
pressure (bar)	uptake (mmol/g)
0.655351	0.285714
1.00283	0.428571
1.32049	0.553571
