Adsorption isotherm of Methane on MOF-508b
DOI: 10.1080/01496390802282347
Article source: Table 4
Adsorbate Methane: InChIKey VNWKTOKETHGBQD-UHFFFAOYSA-N
Kind: experiment
Temperature: 303 K
Tabular data in the source: 1
pressure (bar)	uptake (mmol/g)
0.15	0.17
0.55	0.42
1.03	0.64
2.04	1.05
3.04	1.47
4.51	1.98
