Adsorption isotherm of Carbon Dioxide on MOF-508
DOI: 10.1080/01496390802282347
Adsorbate Carbon Dioxide: InChIKey CURLTUGMZLYLDI-UHFFFAOYSA-N
Temperature: 323 K
Tabular data in the source: 0
pressure (bar)	uptake (mmol/g)
0.677393	0.625
0.976073	0.875
1.36433	1.19643
