Adsorption isotherm of Nitrogen on MOF-508
DOI: 10.1080/01496390802282347
Adsorbate Nitrogen: InChIKey IJGRMHOSHXDMSA-UHFFFAOYSA-N
Temperature: 343 K
Tabular data in the source: 0
pressure (bar)	uptake (mmol/g)
0.0971393	0.150971
0.532455	0.305325
1.06456	0.510646
2.08064	0.970806
3.07222	1.33072
4.54743	1.84547
