Adsorption isotherm of Carbon Dioxide on MOF-508
DOI: 10.1080/01496390802282347
Adsorbate Carbon Dioxide: InChIKey CURLTUGMZLYLDI-UHFFFAOYSA-N
Temperature: 343 K
Tabular data in the source: 0
pressure (bar)	uptake (mmol/g)
0.520833	0.436975
1.02431	0.739496
2.04861	1.34454
