Adsorption isotherm of Carbon Dioxide on MOF-508
DOI: 10.1080/01496390802282347
Adsorbate Carbon Dioxide: InChIKey CURLTUGMZLYLDI-UHFFFAOYSA-N
Temperature: 343 K
Tabular data in the source: 0
pressure (bar)	uptake (mmol/g)
0.748276	0.433333
1.44828	0.733333
2.84828	1.4
