Adsorption isotherm of Carbon Dioxide on MOF-508b
DOI: 10.1080/01496390802282347
Article source: Table 4
Adsorbate Carbon Dioxide: InChIKey CURLTUGMZLYLDI-UHFFFAOYSA-N
Kind: experiment
Temperature: 303 K
Tabular data in the source: 1
pressure (bar)	uptake (mmol/g)
0.11	0.2
0.46	0.96
1	1.78
2.04	3.07
3.04	4.25
4.52	5.93
