Adsorption isotherm of Nitrogen on MOF-508
DOI: 10.1080/01496390802282347
Adsorbate Nitrogen: InChIKey IJGRMHOSHXDMSA-UHFFFAOYSA-N
Temperature: 323 K
Tabular data in the source: 0
pressure (bar)	uptake (mmol/g)
0.503472	0.235294
0.989583	0.403361
1.99653	0.806723
