Adsorption isotherm of Carbon Dioxide, Nitrogen on MOF-508b
DOI: 10.1080/01496390802282347
Article source: Table 4
Adsorbate Carbon Dioxide: InChIKey CURLTUGMZLYLDI-UHFFFAOYSA-N
Adsorbate Nitrogen: InChIKey IJGRMHOSHXDMSA-UHFFFAOYSA-N
Kind: experiment
Temperature: 303 K
Tabular data in the source: 1
pressure (bar)	Carbon Dioxide fraction	Carbon Dioxide uptake (mmol/g)	Nitrogen fraction	Nitrogen uptake (mmol/g)	total uptake (mmol/g)
1	0.5	0.9	0.5	0.23	
2	0.5	1.57	0.5	0.36	
4	0.5	2.89	0.5	0.59	
