Adsorption isotherm of Nitrogen on MOF-508b
DOI: 10.1080/01496390802282347
Article source: Figure 3a
Adsorbate Nitrogen: InChIKey IJGRMHOSHXDMSA-UHFFFAOYSA-N
Kind: experiment
Temperature: 303 K
Tabular data in the source: 0
pressure (bar)	uptake (mmol/g)
0.135256	0.2
0.54	0.48
1.00218	0.68
2.00346	1.08
3.02397	1.48
4.48705	1.96
