Adsorption isotherm of Nitrogen on MOF-508
DOI: 10.1080/01496390802282347
Adsorbate Nitrogen: InChIKey IJGRMHOSHXDMSA-UHFFFAOYSA-N
Temperature: 303 K
Tabular data in the source: 0
pressure (bar)	uptake (mmol/g)
0.169082	0.100719
0.531401	0.302158
1.03865	0.553957
2.02899	0.956835
3.04348	1.41007
4.54106	2.01439
