Adsorption isotherm of Carbon Dioxide, Methane on Zeolite 5A
DOI: 10.1080/01496390802282347
Article source: Figure 4f
Adsorbate Carbon Dioxide: InChIKey CURLTUGMZLYLDI-UHFFFAOYSA-N
Adsorbate Methane: InChIKey VNWKTOKETHGBQD-UHFFFAOYSA-N
Kind: experiment
Temperature: 343 K
Tabular data in the source: 0
pressure (bar)	Carbon Dioxide fraction	Carbon Dioxide uptake (mmol/g)	Methane fraction	Methane uptake (mmol/g)	total uptake (mmol/g)
1.00912	0.5	0.404494	0.5	0.235955	
2.02248	0.5	0.724719	0.5	0.438202	
4.00583	0.5	1.31461	0.5	0.775281	
