Adsorption isotherm of Nitrogen on MOF-508
DOI: 10.1080/01496390802282347
Adsorbate Nitrogen: InChIKey IJGRMHOSHXDMSA-UHFFFAOYSA-N
Temperature: 343 K
Tabular data in the source: 0
pressure (bar)	uptake (mmol/g)
0.676471	0.238183
1	0.330357
1.33333	0.422619
