Adsorption isotherm of Carbon Dioxide, Methane on Zeolite 5A
DOI: 10.1080/01496390802282347
Article source: Figure 4e
Adsorbate Carbon Dioxide: InChIKey CURLTUGMZLYLDI-UHFFFAOYSA-N
Adsorbate Methane: InChIKey VNWKTOKETHGBQD-UHFFFAOYSA-N
Kind: experiment
Temperature: 323 K
Tabular data in the source: 0
pressure (bar)	Carbon Dioxide fraction	Carbon Dioxide uptake (mmol/g)	Methane fraction	Methane uptake (mmol/g)	total uptake (mmol/g)
1.02076	0.5	0.543609	0.5	0.269663	
2.01907	0.5	0.990598	0.5	0.438202	
4.00698	0.5	1.90195	0.5	0.808989	
