Adsorption isotherm of Carbon Dioxide, Nitrogen on MOF-508b
DOI: 10.1080/01496390802282347
Article source: Figure 4a
Adsorbate Carbon Dioxide: InChIKey CURLTUGMZLYLDI-UHFFFAOYSA-N
Adsorbate Nitrogen: InChIKey IJGRMHOSHXDMSA-UHFFFAOYSA-N
Kind: experiment
Temperature: 303 K
Tabular data in the source: 0
pressure (bar)	Carbon Dioxide fraction	Carbon Dioxide uptake (mmol/g)	Nitrogen fraction	Nitrogen uptake (mmol/g)	total uptake (mmol/g)
1.0291	0.5	0.923517	0.5	0.251397	
2.01386	0.5	1.5841	0.5	0.368715	
4.00095	0.5	2.90488	0.5	0.586592	
