Adsorption isotherm of Methane on MOF-508
DOI: 10.1080/01496390802282347
Adsorbate Methane: InChIKey VNWKTOKETHGBQD-UHFFFAOYSA-N
Temperature: 303 K
Tabular data in the source: 0
pressure (bar)	uptake (mmol/g)
0.654578	0.337131
1.01145	0.470086
1.33844	0.548285
