Adsorption isotherm of Methane on MOF-508b
DOI: 10.1080/01496390802282347
Article source: Figure 3a
Adsorbate Methane: InChIKey VNWKTOKETHGBQD-UHFFFAOYSA-N
Kind: experiment
Temperature: 303 K
Tabular data in the source: 0
pressure (bar)	uptake (mmol/g)
0.15444	0.162318
0.559846	0.447462
1.02317	0.692804
2.00772	0.982613
3.05019	1.43396
4.51737	2.00954
