Adsorption isotherm of Methane on MOF-508b
DOI: 10.1080/01496390802282347
Article source: Table 4
Adsorbate Methane: InChIKey VNWKTOKETHGBQD-UHFFFAOYSA-N
Kind: experiment
Temperature: 323 K
Tabular data in the source: 1
pressure (bar)	uptake (mmol/g)
0.13	0.15
0.54	0.38
1.03	0.6
2.06	0.99
3.05	1.38
4.52	1.87
