Adsorption isotherm of Methane on MOF-508b
DOI: 10.1080/01496390802282347
Article source: Figure 3b
Adsorbate Methane: InChIKey VNWKTOKETHGBQD-UHFFFAOYSA-N
Kind: experiment
Temperature: 323 K
Tabular data in the source: 0
pressure (bar)	uptake (mmol/g)
0.064895	0.176156
0.491062	0.3437
0.936758	0.592406
2.00217	1.01127
3.02888	1.4296
4.61724	2.01731
