Adsorption isotherm of Carbon Dioxide on MOF-508b
DOI: 10.1080/01496390802282347
Article source: Figure 3b
Adsorbate Carbon Dioxide: InChIKey CURLTUGMZLYLDI-UHFFFAOYSA-N
Kind: experiment
Temperature: 323 K
Tabular data in the source: 0
pressure (bar)	uptake (mmol/g)
0.084334	0.215415
0.472393	0.662577
1.03508	1.31297
2.02394	2.12978
3.07103	3.02774
4.5054	4.01123
