Adsorption isotherm of Nitrogen on MOF-508b
DOI: 10.1080/01496390802282347
Article source: Figure 3c
Adsorbate Nitrogen: InChIKey IJGRMHOSHXDMSA-UHFFFAOYSA-N
Kind: experiment
Temperature: 343 K
Tabular data in the source: 0
pressure (bar)	uptake (mmol/g)
0.103656	0.2
0.529978	0.44
1.05299	0.64
2.04086	1
2.93196	1.36
4.53953	1.88
