Adsorption isotherm of Methane on MOF-508
DOI: 10.1080/01496390802282347
Adsorbate Methane: InChIKey VNWKTOKETHGBQD-UHFFFAOYSA-N
Temperature: 343 K
Tabular data in the source: 0
pressure (bar)	uptake (mmol/g)
0.120951	0.0515779
2.03201	0.876581
3.02377	1.28945
4.49899	1.8079
4.98262	1.96385
