Adsorption isotherm of Carbon Dioxide, Nitrogen, Methane on MOF-508b
DOI: 10.1080/01496390802282347
Article source: Figure 5b
Adsorbate Carbon Dioxide: InChIKey CURLTUGMZLYLDI-UHFFFAOYSA-N
Adsorbate Nitrogen: InChIKey IJGRMHOSHXDMSA-UHFFFAOYSA-N
Adsorbate Methane: InChIKey VNWKTOKETHGBQD-UHFFFAOYSA-N
Kind: experiment
Temperature: 323 K
Tabular data in the source: 0
pressure (bar)	Carbon Dioxide fraction	Carbon Dioxide uptake (mmol/g)	Nitrogen fraction	Nitrogen uptake (mmol/g)	Methane fraction	Methane uptake (mmol/g)	total uptake (mmol/g)
2.00221	0.33	0.622222	0.33	0.251392	0.33	0.294643	
2.99708	0.33	0.888889	0.33	0.3518	0.33	0.419643	
4.0367	0.33	1.20889	0.33	0.478888	0.33	0.535714	
