Adsorption isotherm of Nitrogen on AEM-COF-1
DOI: 10.1039/c5sc00894h
Article source: Figure 2
Adsorbate Nitrogen: InChIKey IJGRMHOSHXDMSA-UHFFFAOYSA-N
Kind: experiment
Temperature: 77 K
Tabular data in the source: 0
pressure (bar)	uptake (cm3(STP)/g)
0.008195	206.828
0.013509	223.481
0.016166	230.618
0.018823	242.513
0.024137	252.029
0.036094	273.439
0.075951	313.882
0.095879	337.672
0.126436	368.599
0.151679	397.146
0.053365	292.471
0.050708	285.334
0.174264	442.347
0.198178	494.685
0.220764	606.497
0.253977	625.528
0.277891	632.665
0.301805	632.665
0.328377	642.181
0.354948	646.939
0.377533	651.697
0.402776	656.455
0.429347	665.971
0.455918	668.35
0.481161	668.35
0.506403	670.729
0.531646	675.487
0.556888	680.245
0.583459	685.003
0.608038	689.761
0.632616	692.14
0.659187	694.519
0.68443	699.277
0.708344	704.035
0.733586	708.793
0.760157	711.172
0.784071	715.93
0.811971	718.309
0.837214	725.446
0.861128	727.825
0.885042	734.961
0.907627	742.098
0.93287	749.235
0.963426	765.888
0.986012	794.436
1.00328	861.047
1.00196	861.047
0.963426	780.162
0.911613	751.614
0.857142	734.961
0.857142	737.34
0.811971	730.203
0.762814	720.688
0.711001	715.93
0.660516	706.414
0.608702	701.656
0.558217	696.898
0.457247	677.866
0.402776	663.592
0.354948	656.455
0.30712	646.939
0.25597	633.855
0.204821	563.675
0.158321	420.936
0.127765	380.494
0.105179	356.704
0.078608	325.777
0.056023	301.987
