Adsorption isotherm of Nitrogen on COF-5
DOI: 10.1039/c5sc00894h
Article source: Figure 2
Adsorbate Nitrogen: InChIKey IJGRMHOSHXDMSA-UHFFFAOYSA-N
Kind: experiment
Temperature: 77 K
Tabular data in the source: 0
pressure (bar)	uptake ()
0.001552	23.6467
0.000223	40.2995
0.001552	52.1944
-0.001105	66.4683
0.001552	87.8791
0.000223	99.774
0.001552	109.29
-0.001105	116.427
-0.001105	125.943
-0.001105	128.322
0.001552	140.217
0.00288	166.385
0.00288	178.28
0.00288	187.796
0.004209	197.312
0.004209	204.449
0.009523	218.723
0.026794	261.545
0.046723	297.229
0.073294	328.156
0.097208	354.325
0.121122	382.873
0.147693	401.904
0.172935	409.041
0.199507	418.557
0.226078	423.315
0.253977	428.073
0.277891	432.831
0.303134	437.589
0.328377	442.347
0.353619	447.105
0.38019	451.863
0.405433	454.242
0.433332	459
0.457247	463.758
0.482489	463.758
0.505075	468.516
0.532974	470.895
0.556888	475.653
0.582131	475.653
0.607373	480.411
0.633944	487.548
0.657858	489.927
0.68443	492.306
0.709008	495.874
0.733586	497.064
0.758829	501.822
0.7854	508.958
0.810642	511.337
0.833228	516.095
0.859799	520.853
0.882384	525.611
0.908956	532.748
0.935527	544.643
0.960769	556.538
0.984683	585.086
1.00328	692.14
1.00063	692.14
0.966083	587.465
0.911613	551.78
0.857142	539.885
0.8133	532.748
0.762814	520.853
0.709672	513.716
0.659187	508.958
0.608702	499.443
0.556888	494.685
0.506403	487.548
0.453261	478.032
0.405433	466.137
0.354948	461.379
0.305791	449.484
0.255306	439.968
0.204821	431.642
0.15035	413.799
0.102522	373.357
0.056023	316.261
