Adsorption isotherm of Nitrogen on AEM-COF-2
DOI: 10.1039/c5sc00894h
Article source: Figure 2
Adsorbate Nitrogen: InChIKey IJGRMHOSHXDMSA-UHFFFAOYSA-N
Kind: experiment
Temperature: 77 K
Tabular data in the source: 0
pressure (bar)	uptake (cm3(STP)/g)
0	21.2677
0.000223	35.5416
0.000223	49.8154
0.000223	68.8473
0.001552	90.2581
0.00288	114.048
0.004209	128.322
0.005537	140.217
0.008195	149.733
0.009523	168.764
0.008195	183.038
0.01218	206.828
0.013509	213.965
0.014837	218.723
0.025466	252.029
0.046723	287.713
0.071965	321.019
0.097208	351.946
0.12245	373.357
0.147693	399.525
0.155664	409.041
0.174264	430.452
0.176921	435.21
0.198178	459
0.226078	492.306
0.25132	525.611
0.275234	561.296
0.301805	611.255
0.325719	673.108
0.350962	699.277
0.376205	711.172
0.402776	720.688
0.429347	730.203
0.454589	737.34
0.479168	746.856
0.503746	751.614
0.530317	761.13
0.55556	768.267
0.583459	773.025
0.604716	780.162
0.631287	787.299
0.65653	796.815
0.681772	799.194
0.708344	806.331
0.734915	815.847
0.758829	822.984
0.780086	832.5
0.807985	839.637
0.831899	849.152
0.855813	858.668
0.881056	870.563
0.910284	889.595
0.935527	911.006
0.959441	949.07
0.983355	996.649
1.00461	1208.38
1.00328	1206
0.963426	984.754
0.912941	913.385
0.859799	877.7
0.80865	855.1
0.762814	842.016
0.713658	830.121
0.661844	813.468
0.611359	801.573
0.559545	784.92
0.510389	770.646
0.459904	756.372
0.409418	737.34
0.354948	713.551
0.309777	656.455
0.253977	547.022
0.207478	482.79
0.155	418.557
0.101193	361.462
0.052037	299.608
