Adsorption isotherm of Water on CuBTC
DOI: 10.1016/j.egypro.2009.01.166
Adsorbate Water: InChIKey XLYOFNOQVPJJNP-UHFFFAOYSA-N
Temperature: 298 K
Tabular data in the source: 0
pressure (bar)	uptake (wt%)
0.00162233	0.889155
0.0026231	2.98054
0.00363928	14.9595
0.00452329	22.1452
0.00540731	29.3309
0.00678681	34.4163
0.0099278	49.6783
0.0131739	52.3555
0.0164176	53.5346
0.0194115	54.4155
0.0225301	55.2957
0.0259018	58.5714
0.0291604	69.3384
0.031289	75.0185
