Adsorption isotherm of Carbon Dioxide on CuBTC
DOI: 10.1016/j.egypro.2009.01.166
Adsorbate Carbon Dioxide: InChIKey CURLTUGMZLYLDI-UHFFFAOYSA-N
Temperature: 298 K
Tabular data in the source: 0
pressure (bar)	uptake (mmol/g)
0.201258	0.702744
0.503145	1.44917
0.654088	2.54765
1.20755	4.52416
1.61006	5.9736
2.26415	7.0707
3.27044	8.65036
4.32704	9.65844
5.33333	10.315
6.33962	10.8837
7.34591	11.2326
8.40252	11.4934
9.40881	11.7544
10.3648	11.9276
11.3711	12.0567
12.4277	12.1856
13.434	12.2708
14.4403	12.3559
15.4465	12.529
