Adsorption isotherm of Methane on CuBTC
DOI: 10.1016/j.egypro.2009.01.166
Adsorbate Methane: InChIKey VNWKTOKETHGBQD-UHFFFAOYSA-N
Temperature: 298 K
Tabular data in the source: 0
pressure (bar)	uptake (mmol/g)
0.45283	0.526228
0.955975	0.788582
1.50943	0.962886
2.06289	1.35697
3.06918	1.74981
4.02516	2.09883
5.08176	2.44758
6.08805	2.79646
7.24528	3.10097
8.25157	3.31799
9.20755	3.5791
10.2138	3.79612
11.2704	4.01299
12.2767	4.18605
13.3333	4.31502
14.3396	4.40017
15.3459	4.52927
