Adsorption isotherm of Nitrogen on Zeolite 13X
DOI: 10.1016/j.egypro.2009.01.166
Adsorbate Nitrogen: InChIKey IJGRMHOSHXDMSA-UHFFFAOYSA-N
Temperature: 298 K
Tabular data in the source: 0
pressure (bar)	uptake (mmol/g)
1.73913	0.39956
2.58385	0.650051
4.07453	0.898498
6.06211	1.24664
7.40373	1.39429
9.29193	1.59085
9.83851	1.84228
10.2857	1.7396
11.1801	1.83804
12.4224	2.03664
13.3168	2.08444
14.4099	2.28351
15.4037	2.38163
15.8509	2.38022
