Adsorption isotherm of Methane on Zeolite 13X
DOI: 10.1016/j.egypro.2009.01.166
Adsorbate Methane: InChIKey VNWKTOKETHGBQD-UHFFFAOYSA-N
Temperature: 298 K
Tabular data in the source: 0
pressure (bar)	uptake (mmol/g)
1.24224	0.654297
1.59006	0.906361
2.13665	1.20843
3.13043	1.45845
3.47826	1.55861
4.2236	1.80942
6.36025	2.35962
8.24845	2.70807
10.7329	3.05464
11.7267	3.2034
14.1615	3.55012
