Adsorption isotherm of Nitrogen on CuBTC
DOI: 10.1016/j.egypro.2009.01.166
Adsorbate Nitrogen: InChIKey IJGRMHOSHXDMSA-UHFFFAOYSA-N
Temperature: 378 K
Tabular data in the source: 0
pressure (bar)	uptake (mmol/g)
1.50943	0.0837653
2.01258	0.214251
3.16981	0.255028
4.02516	0.296634
5.08176	0.293731
6.13836	0.334785
7.14465	0.419932
8.20126	0.460986
9.15723	0.502315
10.2138	0.675237
11.2704	0.672334
12.2767	0.625613
13.283	0.710761
14.3899	0.839588
15.3459	0.836962
