Adsorption isotherm of Carbon Dioxide on Zeolite 13X
DOI: 10.1016/j.egypro.2009.01.166
Adsorbate Carbon Dioxide: InChIKey CURLTUGMZLYLDI-UHFFFAOYSA-N
Temperature: 298 K
Tabular data in the source: 0
pressure (bar)	uptake (mmol/g)
0.149068	2.22738
0.347826	3.5432
1.04348	4.35113
1.14286	4.55335
1.68944	4.95668
3.08075	5.45861
5.36646	5.85644
10.2857	6.29656
14.7081	6.73827
