Adsorption isotherm of Carbon Dioxide on CuBTC
DOI: 10.1016/j.egypro.2009.01.166
Adsorbate Carbon Dioxide: InChIKey CURLTUGMZLYLDI-UHFFFAOYSA-N
Temperature: 378 K
Tabular data in the source: 0
pressure (bar)	uptake (mmol/g)
2.36478	1.4001
3.01887	1.96973
4.07547	2.36243
5.13208	2.93096
6.18868	3.14783
7.19497	3.7165
8.20126	4.24121
9.15723	4.89792
10.1635	5.37867
11.2201	5.55159
12.2767	5.68056
13.3333	6.51282
14.2893	6.86184
15.2453	7.43064
