Adsorption isotherm of Water on CuBTC
DOI: 10.1016/j.egypro.2009.01.166
Adsorbate Water: InChIKey XLYOFNOQVPJJNP-UHFFFAOYSA-N
Temperature: 305 K
Tabular data in the source: 0
pressure (bar)	uptake (wt%)
0.00100217	2.99025
0.00187778	4.78275
0.00350852	11.0651
0.00476613	17.949
0.00639734	24.531
0.0071506	27.8223
0.00952899	33.8006
0.0145239	38.5647
0.0192635	39.4351
0.0238787	40.606
0.0287458	43.2734
0.0336216	51.6337
0.0347457	52.8255
0.0383625	53.4031
0.0413639	59.078
0.0417473	65.0682
0.0432412	63.5611
0.0442452	67.7498
