Adsorption isotherm of Nitrogen on CuBTC
DOI: 10.1016/j.egypro.2009.01.166
Adsorbate Nitrogen: InChIKey IJGRMHOSHXDMSA-UHFFFAOYSA-N
Temperature: 298 K
Tabular data in the source: 0
pressure (bar)	uptake (mmol/g)
2.16352	0.345705
3.16981	0.474808
4.22642	0.735642
5.2327	0.996613
6.28931	1.03767
7.34591	1.25454
8.3522	1.33969
9.40881	1.51261
10.3648	1.64186
11.4214	1.81478
12.3774	1.90006
13.4843	2.02889
14.4906	2.11404
15.5472	2.243
