Adsorption isotherm of Hydrogen on CuBTC
DOI: 10.1007/s10450-013-9527-2
Adsorbate Hydrogen: InChIKey UFHFLCQGNIYNRP-UHFFFAOYSA-N
Temperature: 298 K
Tabular data in the source: 0
pressure (bar)	uptake (mmol/g)
0.140349	0.0405726
3.658	0.149816
8.01682	0.302758
11.9933	0.455699
15.7403	0.60864
21.1698	0.739732
24.458	0.848976
