Adsorption isotherm of Hydrogen on Zeolite 13X
DOI: 10.1007/s10450-013-9527-2
Adsorbate Hydrogen: InChIKey UFHFLCQGNIYNRP-UHFFFAOYSA-N
Temperature: 298 K
Tabular data in the source: 0
pressure (bar)	uptake (mmol/g)
0.369761	0.0324581
9.69917	0.329601
15.5874	0.539349
22.0874	0.661702
29.658	0.784055
