Adsorption isotherm of Nitrogen on Norit R1 Extra
DOI: 10.1007/s10450-013-9527-2
Article source: Table 2
Adsorbate Nitrogen: InChIKey IJGRMHOSHXDMSA-UHFFFAOYSA-N
Kind: experiment
Temperature: 298 K
Tabular data in the source: 1
pressure (bar)	uptake (mmol/g)
0.13	0.005
4.97	1.278
9.96	2.039
14.96	2.573
19.97	2.981
24.96	3.304
29.97	3.562
