Adsorption isotherm of Methane on CuBTC
DOI: 10.1007/s10450-013-9527-2
Adsorbate Methane: InChIKey VNWKTOKETHGBQD-UHFFFAOYSA-N
Temperature: 298 K
Tabular data in the source: 0
pressure (bar)	uptake (mmol/g)
0.0328516	0.0168515
0.937389	0.547776
2.43184	1.35399
4.79151	2.2782
6.67924	2.9271
9.07823	3.57601
12.1065	4.18559
15.3707	4.69685
