Adsorption isotherm of Carbon Dioxide on Carbon
DOI: 10.1007/s10450-013-9527-2
Adsorbate Carbon Dioxide: InChIKey CURLTUGMZLYLDI-UHFFFAOYSA-N
Temperature: 298 K
Tabular data in the source: 0
pressure (bar)	uptake (mmol/g)
0.140349	0.0299683
0.522702	1.46449
1.97564	3.40465
3.88741	5.16129
4.88153	5.76432
6.71682	6.70818
9.01094	7.62583
11.2286	8.22886
14.058	8.91054
20.0227	9.72331
