Adsorption isotherm of Carbon Dioxide on CuBTC
DOI: 10.1007/s10450-013-9527-2
Article source: Table 8
Adsorbate Carbon Dioxide: InChIKey CURLTUGMZLYLDI-UHFFFAOYSA-N
Kind: experiment
Temperature: 298 K
Tabular data in the source: 1
pressure (bar)	uptake (mmol/g)
0.13	0.021
4.96	7.065
9.97	8.332
14.96	8.846
19.98	9.114
24.96	9.298
