Adsorption isotherm of Carbon Dioxide on Zeolite 13X
DOI: 10.1007/s10450-013-9527-2
Adsorbate Carbon Dioxide: InChIKey CURLTUGMZLYLDI-UHFFFAOYSA-N
Temperature: 298 K
Tabular data in the source: 0
pressure (bar)	uptake (mmol/g)
0.216819	0.0324581
0.446231	2.32221
0.752113	3.63313
1.44035	4.71683
2.28153	5.38103
3.658	5.9054
5.03447	6.18506
7.71094	6.44725
11.8403	6.657
19.7168	6.81431
