Adsorption isotherm of Methane on Norit R1 Extra
DOI: 10.1007/s10450-013-9527-2
Article source: Table 2
Adsorbate Methane: InChIKey VNWKTOKETHGBQD-UHFFFAOYSA-N
Kind: experiment
Temperature: 298 K
Tabular data in the source: 1
pressure (bar)	uptake (mmol/g)
0.11	0.002
4.97	3.006
9.97	4.187
14.97	4.914
19.97	5.413
