Adsorption isotherm of Methane on CuBTC
DOI: 10.1007/s10450-013-9527-2
Article source: Table 8
Adsorbate Methane: InChIKey VNWKTOKETHGBQD-UHFFFAOYSA-N
Kind: experiment
Temperature: 298 K
Tabular data in the source: 1
pressure (bar)	uptake (mmol/g)
0.11	0.035
4.97	3.297
9.97	5.261
14.97	6.5
19.97	7.314
24.96	7.887
