Adsorption isotherm of Methane on Zeosorb 13X
DOI: 10.1007/s10450-013-9527-2
Article source: Table 5
Adsorbate Methane: InChIKey VNWKTOKETHGBQD-UHFFFAOYSA-N
Kind: experiment
Temperature: 298 K
Tabular data in the source: 1
pressure (bar)	uptake (mmol/g)
0.13	0.043
4.06	1.977
9.97	2.846
14.97	3.231
19.97	3.453
24.96	3.598
