Adsorption isotherm of Nitrogen on Zeolite 13X
DOI: 10.1007/s10450-013-9527-2
Article source: Table 5
Adsorbate Nitrogen: InChIKey IJGRMHOSHXDMSA-UHFFFAOYSA-N
Kind: experiment
Temperature: 298 K
Tabular data in the source: 1
pressure (bar)	uptake (mmol/g)
0.12	0.005
4.96	1.299
9.98	1.983
14.97	2.407
19.95	2.693
29.97	3.057
