Adsorption isotherm of Nitrogen on Carbon
DOI: 10.1007/s10450-013-9527-2
Adsorbate Nitrogen: InChIKey IJGRMHOSHXDMSA-UHFFFAOYSA-N
Temperature: 298 K
Tabular data in the source: 0
pressure (bar)	uptake (mmol/g)
0.140349	0.0299683
1.13447	0.389527
4.11682	1.09743
8.93447	1.88398
14.2109	2.51323
19.3345	2.95894
24.7639	3.29978
29.8109	3.50953
