Adsorption isotherm of Nitrogen on Zeolite 13X
DOI: 10.1007/s10450-013-9527-2
Adsorbate Nitrogen: InChIKey IJGRMHOSHXDMSA-UHFFFAOYSA-N
Temperature: 298 K
Tabular data in the source: 0
pressure (bar)	uptake (mmol/g)
0.150835	0.0131067
3.33638	0.150754
7.26915	0.227224
10.966	0.257813
16.5112	0.318989
