Adsorption isotherm of Carbon Dioxide on Zeolite 13X
DOI: 10.1007/s10450-013-9527-2
Adsorbate Carbon Dioxide: InChIKey CURLTUGMZLYLDI-UHFFFAOYSA-N
Temperature: 298 K
Tabular data in the source: 0
pressure (bar)	uptake (mmol/g)
0.150835	0.0131067
0.347473	0.257813
0.858734	0.533107
1.92058	0.884871
3.61168	1.19075
5.53873	1.37428
8.331	1.54252
12.5784	1.64958
16.5505	1.72605
