Adsorption isotherm of Carbon Dioxide on Norit R1 Extra
DOI: 10.1007/s10450-013-9527-2
Article source: Table 2
Adsorbate Carbon Dioxide: InChIKey CURLTUGMZLYLDI-UHFFFAOYSA-N
Kind: experiment
Temperature: 298 K
Tabular data in the source: 1
pressure (bar)	uptake (mmol/g)
0.14	0.009
4.96	5.768
9.96	7.836
14.96	8.995
19.96	9.72
