Adsorption isotherm of Carbon Dioxide on CuBTC
DOI: 10.1007/s10450-013-9527-2
Adsorbate Carbon Dioxide: InChIKey CURLTUGMZLYLDI-UHFFFAOYSA-N
Temperature: 298 K
Tabular data in the source: 0
pressure (bar)	uptake (mmol/g)
0.0328516	0.0168515
1.56663	0.488784
3.53302	1.03937
6.4826	1.60962
9.27487	2.06189
12.893	2.45517
15.3707	2.65181
