Adsorption isotherm of Carbon Dioxide, Nitrogen, Hydrogen, Methane on Zeolite 13X
DOI: 10.1007/s10450-013-9527-2
Article source: Table 6
Adsorbate Carbon Dioxide: InChIKey CURLTUGMZLYLDI-UHFFFAOYSA-N
Adsorbate Nitrogen: InChIKey IJGRMHOSHXDMSA-UHFFFAOYSA-N
Adsorbate Hydrogen: InChIKey UFHFLCQGNIYNRP-UHFFFAOYSA-N
Adsorbate Methane: InChIKey VNWKTOKETHGBQD-UHFFFAOYSA-N
Kind: experiment
Temperature: 298 K
Tabular data in the source: 1
pressure (bar)	Carbon Dioxide fraction	Carbon Dioxide uptake (mmol/g)	Nitrogen fraction	Nitrogen uptake (mmol/g)	Hydrogen fraction	Hydrogen uptake (mmol/g)	Methane fraction	Methane uptake (mmol/g)	total uptake (mmol/g)
2.04	0.296	0.932	0.046	0.095	0.024	0.027	0.634	1.519	2.776
5.12	0.299	1.26	0.046	0.128	0.024	0.025	0.631	1.993	3.699
8.8	0.315	1.488	0.044	0.191	0.018	0.088	0.623	2.456	4.396
12.58	0.32	1.607	0.044	0.23	0.019	0.104	0.618	2.786	4.835
16.66	0.318	1.668	0.045	0.258	0.02	0.104	0.617	3.056	5.202
