Adsorption isotherm of Argon on Carbon
DOI: 10.1007/s10450-013-9527-2
Adsorbate Argon: InChIKey XKRFYHLGVUSROY-UHFFFAOYSA-N
Temperature: 298 K
Tabular data in the source: 0
pressure (bar)	uptake (mmol/g)
0.0721794	0.0499371
0.858734	0.941366
2.11722	2.12994
3.88697	3.31851
5.42075	4.07011
7.03319	4.78674
8.29168	5.25868
10.7693	6.01027
13.1683	6.62204
14.8987	6.91918
16.0392	7.09397
