Adsorption isotherm of Methane on CuBTC
DOI: 10.1007/s10450-013-9527-2
Adsorbate Methane: InChIKey VNWKTOKETHGBQD-UHFFFAOYSA-N
Temperature: 298 K
Tabular data in the source: 0
pressure (bar)	uptake (mmol/g)
0.140349	0.0405726
0.675643	0.586791
1.8227	1.61368
4.04035	2.83721
5.95211	3.71116
7.94035	4.62881
10.6933	5.43721
13.2168	6.15822
16.1227	6.74814
20.6345	7.51284
24.8403	8.05906
