Adsorption isotherm of Methane on Carbon
DOI: 10.1007/s10450-013-9527-2
Adsorbate Methane: InChIKey VNWKTOKETHGBQD-UHFFFAOYSA-N
Temperature: 298 K
Tabular data in the source: 0
pressure (bar)	uptake (mmol/g)
0.140349	0.0299683
0.752113	0.835242
2.51094	1.98886
4.80505	2.93272
8.01682	3.85037
11.5345	4.50583
15.2051	4.95154
19.8698	5.34482
