Adsorption isotherm of Methane on Zeolite 13X
DOI: 10.1007/s10450-013-9527-2
Adsorbate Methane: InChIKey VNWKTOKETHGBQD-UHFFFAOYSA-N
Temperature: 298 K
Tabular data in the source: 0
pressure (bar)	uptake (mmol/g)
0.216819	0.0324581
0.216819	0.189769
0.828584	0.591786
2.20505	1.3259
4.04035	1.99011
6.10505	2.42708
8.55211	2.72422
10.4639	2.93397
13.3698	3.14372
16.4286	3.31851
21.2462	3.51078
24.9933	3.58069
