Adsorption isotherm of Carbon Dioxide on Carbon
DOI: 10.1007/s10450-013-9527-2
Adsorbate Carbon Dioxide: InChIKey CURLTUGMZLYLDI-UHFFFAOYSA-N
Temperature: 298 K
Tabular data in the source: 0
pressure (bar)	uptake (mmol/g)
0.0721794	0.0499371
1.25201	0.486912
3.06109	0.941366
6.24663	1.48321
9.82546	1.97263
13.9155	2.26977
15.8033	2.39212
