Adsorption isotherm of Hydrogen on Zeosorb 13X
DOI: 10.1007/s10450-013-9527-2
Article source: Table 5
Adsorbate Hydrogen: InChIKey UFHFLCQGNIYNRP-UHFFFAOYSA-N
Kind: experiment
Temperature: 298 K
Tabular data in the source: 1
pressure (bar)	uptake (mmol/g)
0.12	0.002
9.99	0.351
19.97	0.608
29.98	0.801
