Adsorption isotherm of Carbon Dioxide on Zeosorb 13X
DOI: 10.1007/s10450-013-9527-2
Article source: Table 5
Adsorbate Carbon Dioxide: InChIKey CURLTUGMZLYLDI-UHFFFAOYSA-N
Kind: experiment
Temperature: 298 K
Tabular data in the source: 1
pressure (bar)	uptake (mmol/g)
0.13	0.003
4.96	6.309
9.97	6.639
14.96	6.779
19.95	6.855
