Adsorption isotherm of Nitrogen on CuBTC
DOI: 10.1007/s10450-013-9527-2
Adsorbate Nitrogen: InChIKey IJGRMHOSHXDMSA-UHFFFAOYSA-N
Temperature: 298 K
Tabular data in the source: 0
pressure (bar)	uptake (mmol/g)
0.140349	0.0405726
1.51682	0.412001
5.26388	1.13301
10.4639	1.89772
18.4168	2.64057
24.3815	3.12124
29.8874	3.42713
