Adsorption isotherm of Hydrogen on Carbon
DOI: 10.1007/s10450-013-9527-2
Adsorbate Hydrogen: InChIKey UFHFLCQGNIYNRP-UHFFFAOYSA-N
Temperature: 298 K
Tabular data in the source: 0
pressure (bar)	uptake (mmol/g)
0.140349	0.0299683
2.12858	0.205998
9.08741	0.625494
13.2168	0.809023
19.4109	1.09743
23.7698	1.2023
29.658	1.33339
