Adsorption isotherm of Methane on Zeolite 13X
DOI: 10.1007/s10450-013-9527-2
Adsorbate Methane: InChIKey VNWKTOKETHGBQD-UHFFFAOYSA-N
Temperature: 298 K
Tabular data in the source: 0
pressure (bar)	uptake (mmol/g)
0.150835	0.0131067
0.544112	0.548401
1.76327	1.23664
3.17907	1.74134
5.0668	2.20017
8.68495	2.61311
11.4772	2.84252
16.6685	3.04134
