Adsorption isotherm of Carbon Dioxide, Nitrogen, Hydrogen, Methane on Norit R1 Extra
DOI: 10.1007/s10450-013-9527-2
Article source: Table 3
Adsorbate Carbon Dioxide: InChIKey CURLTUGMZLYLDI-UHFFFAOYSA-N
Adsorbate Nitrogen: InChIKey IJGRMHOSHXDMSA-UHFFFAOYSA-N
Adsorbate Hydrogen: InChIKey UFHFLCQGNIYNRP-UHFFFAOYSA-N
Adsorbate Methane: InChIKey VNWKTOKETHGBQD-UHFFFAOYSA-N
Kind: experiment
Temperature: 298 K
Tabular data in the source: 1
pressure (bar)	Carbon Dioxide fraction	Carbon Dioxide uptake (mmol/g)	Nitrogen fraction	Nitrogen uptake (mmol/g)	Hydrogen fraction	Hydrogen uptake (mmol/g)	Methane fraction	Methane uptake (mmol/g)	total uptake (mmol/g)
2.23	0.301	0.691	0.055	0.095	0.017	0.013	0.627	1.223	2.117
4.98	0.301	1.253	0.047	0.147	0.017	0.067	0.635	2.15	3.788
8.42	0.307	1.78	0.046	0.205	0.017	0.086	0.631	2.933	5.266
12.09	0.304	2.199	0.047	0.234	0.019	0.093	0.631	3.556	6.463
15.92	0.303	2.224	0.045	0.32	0.02	0.67	0.632	4.007	6.909
