Adsorption isotherm of Hydrogen on Norit R1 Extra
DOI: 10.1007/s10450-013-9527-2
Article source: Table 2
Adsorbate Hydrogen: InChIKey UFHFLCQGNIYNRP-UHFFFAOYSA-N
Kind: experiment
Temperature: 298 K
Tabular data in the source: 1
pressure (bar)	uptake (mmol/g)
0.12	0.089
9.98	0.673
19.98	1.09
29.99	1.372
39.97	1.583
