Adsorption isotherm of Nitrogen on CuBTC
DOI: 10.1007/s10450-013-9527-2
Article source: Table 8
Adsorbate Nitrogen: InChIKey IJGRMHOSHXDMSA-UHFFFAOYSA-N
Kind: experiment
Temperature: 298 K
Tabular data in the source: 1
pressure (bar)	uptake (mmol/g)
0.13	0.012
9.96	1.756
19.97	2.753
30	3.397
39.96	3.861
