Adsorption isotherm of Hydrogen on Carbon
DOI: 10.1007/s10450-013-9527-2
Adsorbate Hydrogen: InChIKey UFHFLCQGNIYNRP-UHFFFAOYSA-N
Temperature: 298 K
Tabular data in the source: 0
pressure (bar)	uptake (mmol/g)
0.0721794	0.0499371
4.43756	0.0499371
7.26915	0.0674161
11.5952	0.0499371
15.8819	0.0848951
