Adsorption isotherm of Methane on Carbon
DOI: 10.1007/s10450-013-9527-2
Adsorbate Methane: InChIKey VNWKTOKETHGBQD-UHFFFAOYSA-N
Temperature: 298 K
Tabular data in the source: 0
pressure (bar)	uptake (mmol/g)
0.0721794	0.0499371
1.40932	0.888929
3.13974	1.62305
5.49941	2.32221
7.8984	2.91649
10.4154	3.35347
13.4829	3.77296
15.8819	4.00019
