Adsorption isotherm of Nitrogen on CuBTC
DOI: 10.1007/s10450-013-9527-2
Adsorbate Nitrogen: InChIKey IJGRMHOSHXDMSA-UHFFFAOYSA-N
Temperature: 298 K
Tabular data in the source: 0
pressure (bar)	uptake (mmol/g)
0.0328516	0.0168515
2.03857	0.0758431
5.30277	0.174162
8.72428	0.21349
13.0897	0.331473
15.4887	0.311809
