Adsorption isotherm of Hydrogen on Zeolite 13X
DOI: 10.1007/s10450-013-9527-2
Adsorbate Hydrogen: InChIKey UFHFLCQGNIYNRP-UHFFFAOYSA-N
Temperature: 298 K
Tabular data in the source: 0
pressure (bar)	uptake (mmol/g)
0.150835	0.0131067
4.31957	0.0895773
7.66243	0.0895773
11.2019	0.104871
14.1515	0.150754
16.6292	0.166048
