Adsorption isotherm of Carbon Dioxide on CuBTC
DOI: 10.1007/s10450-013-9527-2
Adsorbate Carbon Dioxide: InChIKey CURLTUGMZLYLDI-UHFFFAOYSA-N
Temperature: 298 K
Tabular data in the source: 0
pressure (bar)	uptake (mmol/g)
0.140349	0.0405726
0.446231	2.29099
1.28741	3.8641
2.28153	5.5683
4.65211	7.14141
6.94623	7.81872
8.78153	8.2557
11.1521	8.62713
15.5109	9.0204
24.6874	9.36998
