Adsorption isotherm of Hydrogen on CuBTC
DOI: 10.1007/s10450-013-9527-2
Article source: Table 8
Adsorbate Hydrogen: InChIKey UFHFLCQGNIYNRP-UHFFFAOYSA-N
Kind: experiment
Temperature: 298 K
Tabular data in the source: 1
pressure (bar)	uptake (mmol/g)
3.66	0.144
8.26	0.316
13.1	0.475
19.4	0.684
28.61	0.822
