Adsorption isotherm of Nitrogen on Carbon
DOI: 10.1007/s10450-013-9527-2
Adsorbate Nitrogen: InChIKey IJGRMHOSHXDMSA-UHFFFAOYSA-N
Temperature: 298 K
Tabular data in the source: 0
pressure (bar)	uptake (mmol/g)
0.0721794	0.0499371
2.35319	0.119853
4.87016	0.154811
7.46579	0.224727
10.6513	0.259685
14.2302	0.294643
15.9213	0.329601
