Adsorption isotherm of Nitrogen on Zeolite 13X
DOI: 10.1007/s10450-013-9527-2
Adsorbate Nitrogen: InChIKey IJGRMHOSHXDMSA-UHFFFAOYSA-N
Temperature: 298 K
Tabular data in the source: 0
pressure (bar)	uptake (mmol/g)
0.140349	0.0149791
2.05211	0.679181
4.958	1.30842
6.94623	1.658
10.158	1.95515
13.7521	2.32221
15.358	2.4096
20.558	2.72422
25.3756	2.91649
29.8109	3.03884
