Adsorption isotherm of Carbon Dioxide, Nitrogen, Hydrogen, Methane on CuBTC
DOI: 10.1007/s10450-013-9527-2
Article source: Table 9
Adsorbate Carbon Dioxide: InChIKey CURLTUGMZLYLDI-UHFFFAOYSA-N
Adsorbate Nitrogen: InChIKey IJGRMHOSHXDMSA-UHFFFAOYSA-N
Adsorbate Hydrogen: InChIKey UFHFLCQGNIYNRP-UHFFFAOYSA-N
Adsorbate Methane: InChIKey VNWKTOKETHGBQD-UHFFFAOYSA-N
Kind: experiment
Temperature: 298 K
Tabular data in the source: 1
pressure (bar)	Carbon Dioxide fraction	Carbon Dioxide uptake (mmol/g)	Nitrogen fraction	Nitrogen uptake (mmol/g)	Hydrogen fraction	Hydrogen uptake (mmol/g)	Methane fraction	Methane uptake (mmol/g)	total uptake (mmol/g)
2.29	0.312	0.766	0.043	0.104	0.019	0.047	0.626	1.295	2.297
4.96	0.323	1.375	0.043	0.182	0.018	0.182	0.616	2.359	4.09
8.09	0.312	2.113	0.044	0.261	0.019	0.261	0.625	3.502	6.265
11.88	0.313	2.494	0.045	0.326	0.019	0.326	0.623	4.225	7.465
15.47	0.315	2.698	0.044	0.415	0.02	0.415	0.621	4.846	8.303
