Adsorption isotherm of Methane on UiO-66
DOI: 10.1021/Jp308657x
Adsorbate Methane: InChIKey VNWKTOKETHGBQD-UHFFFAOYSA-N
Temperature: 303 K
Tabular data in the source: 0
pressure (bar)	uptake (mmol/g)
0.472854	0.334181
0.944484	0.584739
1.94441	0.960382
3.00201	1.28024
4.0001	1.53045
6.11265	1.98897
9.10366	2.51661
12.0345	2.93278
14.9656	3.36289
18.0125	3.7093
19.9459	3.91708
