Adsorption isotherm of Nitrogen on UiO-66
DOI: 10.1021/Jp308657x
Adsorbate Nitrogen: InChIKey IJGRMHOSHXDMSA-UHFFFAOYSA-N
Temperature: 77 K
Tabular data in the source: 0
pressure (bar)	uptake (cm3(STP)/g)
0.0103155	218.447
0.0315534	244.66
0.0969847	259.223
0.204733	276.699
0.358621	289.806
0.497139	307.282
0.651018	317.476
0.747223	333.495
0.803001	336.408
0.914624	362.621
0.98019	419.417
