Adsorption isotherm of Carbon Dioxide on UiO-66
DOI: 10.1021/Jp308657x
Adsorbate Carbon Dioxide: InChIKey CURLTUGMZLYLDI-UHFFFAOYSA-N
Temperature: 303 K
Tabular data in the source: 0
pressure (bar)	uptake (mmol/g)
0.185956	0.447458
1.10993	1.54576
2.03265	2.4
3.32314	3.33559
5.10342	4.27119
6.51366	4.67797
9.21148	5.45085
10.7438	5.77627
12.3979	5.97966
13.8683	6.18305
