Adsorption isotherm of Methane on UiO-66
DOI: 10.1021/Jp308657x
Adsorbate Methane: InChIKey VNWKTOKETHGBQD-UHFFFAOYSA-N
Temperature: 303 K
Tabular data in the source: 0
pressure (bar)	uptake (mmol/g)
0.0273031	0.0404929
0.50182	0.335581
0.992574	0.549203
1.99032	0.894981
