Adsorption isotherm of Carbon Dioxide on UiO-66
DOI: 10.1021/Jp308657x
Adsorbate Carbon Dioxide: InChIKey CURLTUGMZLYLDI-UHFFFAOYSA-N
Temperature: 303 K
Tabular data in the source: 0
pressure (bar)	uptake (mmol/g)
0.172558	0.137704
0.510692	1.37864
1.08442	2.03995
2.06212	2.83867
2.98415	3.33401
4.07975	3.82912
6.15822	4.4057
9.04503	5.20191
12.0491	5.77728
14.9381	6.27003
18.1168	6.70724
19.9084	6.95316
