Adsorption isotherm of Methane on UiO-66
DOI: 10.1021/Jp308657x
Adsorbate Methane: InChIKey VNWKTOKETHGBQD-UHFFFAOYSA-N
Temperature: 303 K
Tabular data in the source: 0
pressure (bar)	uptake (mmol/g)
0.196368	0.134262
0.414498	0.241258
0.703545	0.40201
1.0307	0.535385
1.30333	0.642011
1.58135	0.707923
1.963	0.840929
