Adsorption isotherm of Methane on UiO-66
DOI: 10.1021/Jp308657x
Adsorbate Methane: InChIKey VNWKTOKETHGBQD-UHFFFAOYSA-N
Temperature: 303 K
Tabular data in the source: 0
pressure (bar)	uptake (mmol/g)
0.17732	0.125318
0.649155	0.389813
1.59038	0.751558
2.64839	1.09929
4.17558	1.53033
5.40786	1.79432
6.87472	2.09997
8.28268	2.37778
8.98707	2.54456
9.45666	2.65574
12.0945	3.0303
