Adsorption isotherm of Carbon Dioxide on UiO-66
DOI: 10.1021/Jp308657x
Adsorbate Carbon Dioxide: InChIKey CURLTUGMZLYLDI-UHFFFAOYSA-N
Temperature: 303 K
Tabular data in the source: 0
pressure (bar)	uptake (mmol/g)
0.0110469	0.1084
0.486856	1.35263
0.989064	1.97296
1.9983	2.75255
