Adsorption isotherm of Methane on UiO-66
DOI: 10.1021/Jp308657x
Adsorbate Methane: InChIKey VNWKTOKETHGBQD-UHFFFAOYSA-N
Temperature: 303 K
Tabular data in the source: 0
pressure (bar)	uptake (mmol/g)
0.552473	0.284746
1.96375	0.894915
3.06766	1.26102
4.04767	1.34237
5.94811	1.83051
8.95081	2.35932
14.9541	3.01017
18.078	3.29492
