Adsorption isotherm of Carbon Dioxide on UiO-66
DOI: 10.1021/Jp308657x
Adsorbate Carbon Dioxide: InChIKey CURLTUGMZLYLDI-UHFFFAOYSA-N
Temperature: 303 K
Tabular data in the source: 0
pressure (bar)	uptake (mmol/g)
0.228814	0.35832
0.571536	0.964766
1.08761	1.59857
1.48918	2.06701
2.06451	2.50763
3.38852	3.41624
5.23319	4.32416
6.61765	4.87407
9.10009	5.58805
10.7171	5.97213
13.8374	6.49217
16.9005	6.90194
