Adsorption isotherm of Carbon Dioxide on UiO-66
DOI: 10.1021/Jp308657x
Adsorbate Carbon Dioxide: InChIKey CURLTUGMZLYLDI-UHFFFAOYSA-N
Temperature: 303 K
Tabular data in the source: 0
pressure (bar)	uptake (mmol/g)
0.15303	0.324386
0.344263	0.689191
0.562614	0.958898
0.791901	1.25565
1.04295	1.52513
1.26125	1.75416
1.54499	2.02342
1.79052	2.23871
