Adsorption isotherm of Methane on UiO-66
DOI: 10.1021/Jp308657x
Adsorbate Methane: InChIKey VNWKTOKETHGBQD-UHFFFAOYSA-N
Temperature: 303 K
Tabular data in the source: 0
pressure (bar)	uptake (mmol/g)
0.736769	0.40678
1.657	0.772881
2.63805	1.05763
3.98665	1.38305
5.45749	1.6678
6.86752	2.0339
7.66406	2.15593
8.88959	2.35932
10.0539	2.56271
