Adsorption isotherm of Carbon Dioxide on UiO-66
DOI: 10.1021/Jp308657x
Adsorbate Carbon Dioxide: InChIKey CURLTUGMZLYLDI-UHFFFAOYSA-N
Temperature: 303 K
Tabular data in the source: 0
pressure (bar)	uptake (mmol/g)
0.496437	1.30169
0.989554	1.95254
1.91186	2.72542
2.89415	3.25424
3.93725	3.70169
6.02179	4.27119
9.02553	5.00339
15.0917	5.97966
17.9707	6.26441
