Adsorption isotherm of Thiophene on Zeolite MOR
DOI: 10.1016/j.seppur.2006.11.007
Adsorbate Thiophene: InChIKey YTPLMLYBLZKORZ-UHFFFAOYSA-N
Temperature: 363 K
Tabular data in the source: 0
pressure (bar)	uptake (molecules/unitcell)
3.99917e-06	0.00763881
6.47023e-06	0.00863518
9.99816e-06	0.02861
1.37746e-05	0.0769575
1.61678e-05	0.1059
1.98664e-05	0.134937
2.33179e-05	0.163879
2.86523e-05	0.192916
3.44096e-05	0.221905
4.22815e-05	0.250942
4.96272e-05	0.279884
6.09804e-05	0.308921
0.00010089	0.395795
0.000113094	0.453252
0.000129694	0.52983
0.000148734	0.606408
0.000170565	0.682986
0.000195601	0.759564
0.000229525	0.826652
0.000257259	0.903183
0.000295019	0.979761
0.00033833	1.05634
0.000396981	1.13296
0.000444939	1.20949
0.000510258	1.28607
0.000585194	1.35311
0.000671089	1.42969
0.000769609	1.50627
0.000989191	1.65938
0.00116083	1.71693
0.00136217	1.78402
0.00159853	1.84157
0.00187577	1.90866
0.00225196	1.98533
0.00258286	2.04284
0.00303103	2.10039
0.00389691	2.21535
0.00561888	2.31148
0.00773945	2.39797
0.00973083	2.41752
0.0128077	2.4467
0.0157387	2.4662
0.0197875	2.49528
0.0207138	2.50491
0.0254525	2.53395
0.0393161	2.61115
0.0529493	2.63084
0.0681177	2.65043
0.0938361	2.71785
0.115296	2.75643
0.15525	2.80473
0.195187	2.83381
0.245413	2.85336
0.308525	2.89198
