Adsorption isotherm of Thiophene on Zeolite MFI
DOI: 10.1016/j.seppur.2006.11.007
Adsorbate Thiophene: InChIKey YTPLMLYBLZKORZ-UHFFFAOYSA-N
Temperature: 363 K
Tabular data in the source: 0
pressure (bar)	uptake (molecules/unitcell)
3.80619e-06	0.0370076
5.96499e-06	0.0390244
7.30146e-06	0.0399319
1e-05	0.0620155
1.53239e-05	0.187962
1.87573e-05	0.250885
2.34817e-05	0.313909
2.87435e-05	0.376832
3.3638e-05	0.418882
4.11747e-05	0.481805
5.27169e-05	0.54493
6.45298e-05	0.607853
0.00011835	0.879309
0.000138503	1.00405
0.000162091	1.14945
0.000189692	1.29486
0.000221993	1.44027
0.000259795	1.58568
0.000304039	1.73109
0.000347904	1.8764
0.000416399	2.02191
0.000487304	2.16732
0.000557622	2.31262
0.000652574	2.45803
0.000763713	2.60344
0.000977777	2.87328
0.00119688	2.95688
0.00146504	3.06115
0.00171455	3.16521
0.00205211	3.26938
0.00245607	3.37354
0.00293961	3.49838
0.00351836	3.62322
0.00421105	3.70671
0.00504011	3.72819
0.00616936	3.79111
0.0080783	3.83367
0.010113	3.89669
0.0132419	3.91857
0.0173388	3.94046
0.0217065	3.94146
0.0271738	3.98382
0.0398107	4.0062
0.0498379	4.04855
0.0610056	4.04946
0.0698072	4.09141
0.0873896	4.07175
0.109402	4.09343
0.20065	4.17884
0.251189	4.20052
0.321601	4.2223
