Adsorption isotherm of Thiophene on Zeolite MFI
DOI: 10.1016/j.seppur.2006.11.007
Adsorbate Thiophene: InChIKey YTPLMLYBLZKORZ-UHFFFAOYSA-N
Temperature: 323 K
Tabular data in the source: 0
pressure (bar)	uptake (molecules/unitcell)
3.8926e-06	0.305842
4.76486e-06	0.410109
5.70296e-06	0.534947
6.82574e-06	0.639113
8.35507e-06	0.743379
9.56071e-06	0.868015
1.17028e-05	1.01363
1.36959e-05	1.15903
1.6028e-05	1.30444
1.83405e-05	1.42908
2.1464e-05	1.57449
2.34817e-05	1.65758
2.74802e-05	1.80299
3.21603e-05	1.9484
3.76366e-05	2.0938
4.40453e-05	2.23921
5.15466e-05	2.38462
6.0324e-05	2.53003
9.88826e-05	2.98703
0.00012104	3.07062
0.00014816	3.13355
0.000185477	3.21724
0.000227039	3.30084
0.000277907	3.36376
0.000340181	3.46803
0.000416399	3.55162
0.000509706	3.61455
0.000638087	3.69824
0.000781052	3.78184
0.00102273	3.88641
0.00125187	3.90799
0.00156718	3.90899
0.00171455	3.93007
0.0021464	3.93108
0.00268701	3.95276
0.00328905	3.97434
0.00393659	3.97514
0.00504011	4.0176
0.00630957	4.03928
0.0080783	4.04039
0.0103426	4.08284
0.0154967	4.14667
0.0193999	4.16835
0.0242868	4.19003
0.0297283	4.21161
0.038926	4.25416
0.0682574	4.4634
0.0854496	4.5471
0.104595	4.63069
0.128032	4.73496
0.156719	4.8599
0.191835	4.98484
0.229602	5.10967
0.321601	5.37992
