Adsorption isotherm of Benzene on Zeolite MFI
DOI: 10.1016/j.seppur.2006.11.007
Adsorbate Benzene: InChIKey UHOVQNZJYSORNB-UHFFFAOYSA-N
Temperature: 363 K
Tabular data in the source: 0
pressure (bar)	uptake (molecules/unitcell)
1.95452e-05	0.153355
3.09065e-05	0.191693
4.11557e-05	0.268371
5.32562e-05	0.306709
7.09169e-05	0.383387
9.17677e-05	0.460064
0.000122197	0.498403
0.000193228	0.690096
0.00025004	0.920128
0.00031442	1.11182
0.000406865	1.30351
0.000511635	1.53355
0.000662064	1.72524
0.000763977	1.91693
0.000960705	2.07029
0.00120806	2.22364
0.00151911	2.45367
0.00196576	2.72204
0.00254372	2.83706
0.00338727	2.91374
0.00438319	3.02875
0.00567192	3.14377
0.00755284	3.25879
0.0097735	3.3738
0.0173305	3.52716
0.0199986	3.52716
0.023077	3.52716
0.0274037	3.48882
0.0344596	3.52716
0.0375517	3.52716
0.045887	3.52716
0.0577019	3.5655
0.0685204	3.60383
0.0790697	3.60383
0.0912431	3.60383
0.111497	3.60383
0.136247	3.60383
0.161791	3.60383
0.181429	3.60383
0.312626	3.71885
0.466825	3.71885
0.62163	3.68051
1.27197	3.68051
2.4578	3.79553
5.17523	3.8722
6.50778	3.83387
8.66585	3.83387
11.5396	3.8722
15.3663	3.8722
20.4621	3.8722
29.692	3.8722
