Adsorption isotherm of Thiophene on Zeolite MOR
DOI: 10.1016/j.seppur.2006.11.007
Adsorbate Thiophene: InChIKey YTPLMLYBLZKORZ-UHFFFAOYSA-N
Temperature: 393 K
Tabular data in the source: 0
pressure (bar)	uptake (molecules/unitcell)
1.34704e-05	-0.00891986
1.77309e-05	0.0107228
2.08137e-05	0.0205916
2.61698e-05	0.0401394
3.21603e-05	0.050103
4.0438e-05	0.0601141
5.08475e-05	0.0701253
6.39352e-05	0.0801364
7.8567e-05	0.0996367
0.000103428	0.100206
0.000121375	0.157758
0.000149115	0.215405
0.000174989	0.272957
0.000210107	0.330557
0.000252296	0.378619
0.000302935	0.436219
0.000363756	0.484282
0.000436767	0.541881
0.000524433	0.599481
0.000629724	0.647544
0.000756171	0.695606
0.00111509	0.858536
0.00127885	0.925577
0.00146649	1.01169
0.00164365	1.08822
0.00188495	1.1648
0.00216162	1.24138
0.00242276	1.31791
0.00277843	1.39449
0.00318625	1.47106
0.00391219	1.61454
0.00459082	1.68163
0.00538704	1.74872
0.00632135	1.81581
0.00794347	1.92119
0.00997999	2.05517
0.0147235	2.15135
0.0180909	2.18992
0.0222264	2.23803
0.0266895	2.28609
0.0327906	2.3342
0.0384849	2.37268
0.0472868	2.41126
0.0838012	2.49827
0.105364	2.51782
0.155492	2.56631
0.191052	2.60488
0.234758	2.63392
0.308968	2.67264
