Adsorption isotherm of Thiophene on Zeolite MOR
DOI: 10.1016/j.seppur.2006.11.007
Adsorbate Thiophene: InChIKey YTPLMLYBLZKORZ-UHFFFAOYSA-N
Temperature: 298 K
Tabular data in the source: 0
pressure (bar)	uptake (molecules/unitcell)
4.46016e-06	0.839853
4.99908e-06	0.916593
5.73245e-06	1.00294
6.4251e-06	1.07968
7.36767e-06	1.16603
8.25772e-06	1.24277
9.04191e-06	1.3864
1.01393e-05	1.38664
1.13708e-05	1.37732
1.21728e-05	1.46352
1.4284e-05	1.5308
1.67614e-05	1.59807
1.92229e-05	1.66529
2.25569e-05	1.73256
2.6471e-05	1.79027
3.1062e-05	1.85754
3.64494e-05	1.92482
4.18023e-05	1.99204
4.90524e-05	2.05931
5.75599e-05	2.12659
6.75429e-05	2.19386
7.92574e-05	2.26113
9.9591e-05	2.37636
0.000119611	2.39586
0.000146964	2.43454
0.000184778	2.45414
0.000227039	2.49282
0.000278959	2.5315
0.00035072	2.56067
0.000430953	2.58978
0.000529505	2.62846
0.000665718	2.65763
0.000817956	2.6963
0.0011797	2.75444
0.00148327	2.77404
0.00182259	2.80316
0.00223955	2.83228
0.00281566	2.86144
0.00476661	2.93904
0.00599322	2.95864
0.00806993	3.00707
0.0099211	2.95968
0.0121921	2.96967
0.0153306	2.97971
0.0192766	2.98975
0.0236881	3.0093
0.0297852	3.01934
0.0374524	3.02938
0.0528044	3.04922
0.0695008	3.07848
0.0834776	3.08842
0.104958	3.10802
0.154902	3.14708
0.190375	3.14751
0.239392	3.14799
0.315146	3.14856
