Adsorption isotherm of Thiophene on Zeolite MFI
DOI: 10.1016/j.seppur.2006.11.007
Adsorbate Thiophene: InChIKey YTPLMLYBLZKORZ-UHFFFAOYSA-N
Temperature: 298 K
Tabular data in the source: 0
pressure (bar)	uptake (molecules/unitcell)
4.07155e-06	1.77374
4.65897e-06	1.93972
5.45243e-06	2.08513
6.38087e-06	2.23054
7.46741e-06	2.35528
8.54496e-06	2.52126
9.56071e-06	2.66646
1e-05	2.64599
1.22405e-05	2.77093
1.49834e-05	2.85453
1.83405e-05	2.95879
2.19513e-05	3.06296
2.68701e-05	3.14656
3.28905e-05	3.25082
3.51836e-05	3.2718
4.02606e-05	3.33442
4.8187e-05	3.45926
5.89834e-05	3.54285
7.22005e-05	3.64712
0.00010113	3.814
0.000123788	3.83558
0.000151527	3.83649
0.000189692	3.87884
0.000237471	3.87985
0.000297283	3.90153
0.000347904	3.92291
0.000435532	3.92392
0.000545243	3.9456
0.000682574	3.96728
0.00130939	4.03222
0.00163919	4.03323
0.00205211	4.05491
0.00251189	4.07649
0.00307468	4.09807
0.00376366	4.09897
0.00492811	4.14153
0.00616936	4.18388
0.00772325	4.22623
0.010113	4.3308
0.012104	4.43497
0.014816	4.53923
0.0177329	4.6434
0.0212241	4.72689
0.0259795	4.83116
0.0310942	4.93532
0.0407155	5.10191
0.0498379	5.28886
0.0557622	5.39273
0.0682574	5.60035
0.0798804	5.76643
0.0914071	5.93241
0.104595	6.09839
0.119688	6.26437
0.136957	6.43035
0.16028	6.65845
0.191835	6.78329
0.229602	6.90812
0.274805	7.03296
0.321601	7.17837
