Adsorption isotherm of Thiophene on Zeolite MFI
DOI: 10.1016/j.seppur.2006.11.007
Adsorbate Thiophene: InChIKey YTPLMLYBLZKORZ-UHFFFAOYSA-N
Temperature: 393 K
Tabular data in the source: 0
pressure (bar)	uptake (molecules/unitcell)
1.40068e-05	0.0428562
1.91836e-05	0.044268
3.3638e-05	0.0881326
6.59948e-05	0.132501
9.88826e-05	0.154988
0.00012104	0.279927
0.00014816	0.363522
0.000181359	0.467788
0.000217065	0.571954
0.000265699	0.676221
0.000325237	0.780488
0.000398107	0.864083
0.000476486	0.968249
0.000583244	1.07252
0.000713937	1.17678
0.001	1.34367
0.00117028	1.50975
0.00136959	1.65516
0.0016028	1.80057
0.00187573	1.94598
0.0021464	2.11196
0.00251189	2.25736
0.00293961	2.40277
0.00344025	2.54818
0.00411747	2.69369
0.00471162	2.85967
0.00563923	2.98451
0.00659948	3.10925
0.00772325	3.23398
0.010113	3.3799
0.0123788	3.48416
0.0151527	3.54709
0.0189692	3.61011
0.0232193	3.6937
0.0284224	3.75663
0.0398107	3.8615
0.0533126	3.88348
0.0713937	3.88479
0.0873896	3.92704
0.109402	3.94872
0.16028	3.99178
0.20065	4.03413
0.251189	4.05581
0.321601	4.03625
