Adsorption isotherm of Benzene on Zeolite MFI
DOI: 10.1016/j.seppur.2006.11.007
Adsorbate Benzene: InChIKey UHOVQNZJYSORNB-UHFFFAOYSA-N
Temperature: 363 K
Tabular data in the source: 0
pressure (bar)	uptake (molecules/unitcell)
0.000115396	0.0766773
0.000204621	0.0766773
0.000272471	0.153355
0.000443374	0.191693
0.000590391	0.191693
0.00104689	0.306709
0.00139405	0.306709
0.00196576	0.306709
0.00261764	0.383387
0.0034857	0.421725
0.00464162	0.421725
0.00618073	0.460064
0.00949751	0.498403
0.0141821	0.498403
0.0199986	0.498403
0.038642	0.690096
0.0560738	0.84345
0.0790697	0.958466
0.0994283	1.15016
0.128663	1.30351
0.192124	1.64856
0.241593	1.80192
0.371238	2.30032
0.453645	2.56869
0.639691	3.06709
0.738174	3.33546
0.827771	3.45048
1.01152	3.83387
1.23606	4.21725
1.4678	4.48562
1.79362	4.75399
2.12989	5.0607
2.60269	5.36741
3.00339	5.63578
3.67009	5.90415
5.02913	6.36422
6.32405	6.55591
7.9524	6.7476
10.2906	6.9393
12.9402	7.13099
16.272	7.36102
21.0562	7.55272
29.692	7.82109
