Adsorption isotherm of Thiophene on Zeolite MOR
DOI: 10.1016/j.seppur.2006.11.007
Adsorbate Thiophene: InChIKey YTPLMLYBLZKORZ-UHFFFAOYSA-N
Temperature: 323 K
Tabular data in the source: 0
pressure (bar)	uptake (molecules/unitcell)
3.9954e-06	0.150689
4.79822e-06	0.179678
5.89522e-06	0.227788
7.07881e-06	0.275851
9.97631e-06	0.362393
1.14406e-05	0.438971
1.31202e-05	0.515549
1.5046e-05	0.592127
1.68628e-05	0.678194
1.93379e-05	0.754772
2.21769e-05	0.83135
2.48559e-05	0.90788
2.85043e-05	0.984458
3.26866e-05	1.07057
3.74844e-05	1.14715
4.20136e-05	1.22368
4.81804e-05	1.30026
5.52523e-05	1.37684
6.33636e-05	1.45341
7.10133e-05	1.53948
8.14385e-05	1.61606
0.000100012	1.73093
0.000117365	1.78848
0.000140922	1.84608
0.000169208	1.90368
0.00020317	1.96128
0.000238424	2.01883
0.000292927	2.06694
0.000343756	2.12449
0.000412753	2.18209
0.000495599	2.23969
0.000595059	2.29729
0.000714496	2.35489
0.00100696	2.44143
0.00118173	2.48945
0.00148583	2.50899
0.00182562	2.54757
0.00224316	2.58614
0.00275645	2.60564
0.00388544	2.66357
0.00488472	2.70219
0.00600206	2.73123
0.00772094	2.76036
0.00993162	2.79903
0.0122042	2.81853
0.0153458	2.82854
0.0188578	2.84804
0.0237099	2.86759
0.0298133	2.8776
0.0383531	2.8972
0.0516476	2.93596
0.0835334	2.98464
0.102644	3.01368
0.129049	3.04276
0.190468	3.07218
0.23951	3.07265
0.308141	3.08271
