Adsorption isotherm of Benzene on Zeolite MOR
DOI: 10.1016/j.seppur.2006.11.007
Adsorbate Benzene: InChIKey UHOVQNZJYSORNB-UHFFFAOYSA-N
Temperature: 363 K
Tabular data in the source: 0
pressure (bar)	uptake (molecules/unitcell)
0.000121319	0.0100287
0.000199416	0.0200573
0.000815211	0.0501433
0.00107443	0.0601719
0.00141606	0.0702006
0.00290289	0.0902579
0.00382587	0.0902579
0.00504243	0.100287
0.00664569	0.100287
0.0103369	0.120344
0.0200521	0.180516
0.0411065	0.190544
0.0819728	0.290831
0.168043	0.280802
0.325979	0.310888
0.454019	0.411175
0.650055	0.52149
1.29631	0.581662
2.51466	0.681948
3.22398	0.722063
4.02084	0.772206
5.15502	0.832378
7.17984	0.842407
10.5677	0.872493
