Adsorption isotherm of Thiophene on Zeolite MOR
DOI: 10.1016/j.seppur.2006.11.007
Adsorbate Thiophene: InChIKey YTPLMLYBLZKORZ-UHFFFAOYSA-N
Temperature: 363 K
Tabular data in the source: 0
pressure (bar)	uptake (molecules/unitcell)
3.05077e-05	0.0902579
4.02087e-05	0.110315
5.15502e-05	0.140401
6.60906e-05	0.170487
8.71064e-05	0.200573
0.000121319	0.230659
0.000159897	0.330946
0.000204998	0.401146
0.00024193	0.491404
0.000285522	0.571633
0.000327786	0.651862
0.000569377	0.922636
0.000793012	1.09312
0.00093588	1.17335
0.00107443	1.25358
0.001268	1.34384
0.00145569	1.42407
0.00171795	1.51433
0.00181547	1.63467
0.00226423	1.6447
0.00259938	1.69484
0.00315355	1.76504
0.00382587	1.83524
0.00464162	1.89542
0.00563119	1.96562
0.00683172	2.03582
0.0085204	2.10602
0.0097816	2.18625
0.0200521	2.25645
0.0257081	2.28653
0.0411065	2.33668
0.0797407	2.38682
0.102233	2.41691
0.163467	2.47708
0.20387	2.51719
0.261376	2.55731
0.317102	2.58739
0.493226	2.53725
0.650055	2.49713
0.810724	2.45702
1.03941	2.41691
1.3326	2.37679
1.85603	2.40688
2.51466	2.45702
3.22398	2.41691
4.1334	2.37679
5.29933	2.33668
7.58745	2.38682
10	2.42693
