Adsorption isotherm of Nitrogen on B-COF-2
DOI: 10.1021/jacs.0c00923
Article source: Figure 2c
Adsorbate Nitrogen: InChIKey IJGRMHOSHXDMSA-UHFFFAOYSA-N
Kind: experiment
Temperature: 77 K
Tabular data in the source: 0
pressure (bar)	uptake (cm3(STP)/g)
0.009665	17.6551
0.016899	36.4521
0.019792	51.9488
0.024827	68.5417
0.027661	82.9307
0.03067	100.643
0.041842	114.986
0.055444	135.964
0.073158	155.812
0.092436	165.679
0.109572	174.45
0.132903	182.078
0.151893	186.407
0.172967	190.723
0.208457	191.637
0.231557	194.835
0.269132	195.738
0.323612	200.98
0.36964	204.053
0.432168	203.711
0.478138	205.675
0.526365	210.952
0.582467	207.321
0.628668	213.717
0.682917	214.528
0.724661	215.408
0.766346	215.18
0.824879	218.184
0.854059	218.024
0.872991	221.245
0.916819	222.113
0.948429	228.589
0.979982	233.956
1.00117	240.489
1.01831	249.259
1.03539	256.922
0.165438	206.277
0.22837	213.689
0.268029	214.58
0.318168	216.522
0.382838	217.277
0.435119	220.315
0.464356	221.263
0.520747	223.171
0.587502	223.914
0.639551	222.521
0.687663	225.582
0.729522	228.678
0.779429	226.189
0.825572	231.477
0.861005	231.283
0.890185	231.123
0.91317	232.106
0.936097	231.98
0.961455	238.49
0.982528	242.807
1.00389	252.662
1.02317	262.529
1.03834	273.526
