Adsorption isotherm of Nitrogen on T-COF-2
DOI: 10.1021/jacs.0c00923
Article source: Figure 2d
Adsorbate Nitrogen: InChIKey IJGRMHOSHXDMSA-UHFFFAOYSA-N
Kind: experiment
Temperature: 77 K
Tabular data in the source: 0
pressure (bar)	uptake (cm3(STP)/g)
0.008428	13.1428
0.008848	27.5557
0.009372	45.5719
0.009862	62.387
0.010142	71.9956
0.008585	85.2143
0.009005	99.6273
0.009285	109.236
0.013656	126.037
0.015912	136.84
0.022119	150.031
0.040392	177.594
0.07225	205.108
0.089963	213.453
0.107676	221.799
0.131264	231.925
0.154922	244.454
0.174505	250.39
0.193984	252.723
0.223237	257.424
0.262195	262.09
0.318691	269.096
0.367283	271.326
0.415945	275.958
0.466408	275.778
0.516941	278.001
0.565639	283.834
0.619984	283.641
0.676409	288.245
0.717203	289.301
0.773664	295.106
0.814457	296.162
0.841665	297.267
0.861109	298.399
0.890292	300.697
0.915558	301.809
0.938989	306.53
0.96242	311.251
0.978052	314.799
0.993754	320.75
1.01341	329.088
1.0244	339.86
0.16342	269.649
0.22002	280.258
0.272494	282.474
0.317274	287.119
0.358173	291.779
0.420352	293.96
0.473	302.181
0.529321	303.182
0.570185	306.64
0.618777	308.87
0.671146	307.483
0.73329	308.463
0.768331	311.942
0.818899	315.366
0.855776	315.234
0.88683	315.124
0.91019	317.443
0.94128	318.534
0.960793	322.068
0.98627	330.386
1.00208	339.939
1.01792	350.694
