Adsorption isotherm of Nitrogen on T-COF-1
DOI: 10.1021/jacs.0c00923
Article source: Figure 2d
Adsorbate Nitrogen: InChIKey IJGRMHOSHXDMSA-UHFFFAOYSA-N
Kind: experiment
Temperature: 77 K
Tabular data in the source: 0
pressure (bar)	uptake (cm3(STP)/g)
0.004861	23.9663
0.005421	43.1835
0.008821	59.9883
0.010247	75.5988
0.014653	93.6012
0.015177	111.617
0.023326	124.802
0.047526	155.947
0.071795	189.494
0.083721	199.061
0.10563	218.203
0.131421	237.33
0.149239	249.279
0.172844	260.006
0.190487	265.949
0.208095	270.691
0.266846	288.5
0.325318	296.701
0.364171	297.764
0.412938	305.998
0.467422	310.609
0.521907	315.221
0.562876	322.282
0.611468	324.512
0.673612	325.492
0.73586	330.075
0.778804	338.331
0.81388	343.011
0.833359	345.344
0.864553	350.038
0.90164	357.113
0.921224	363.05
0.940808	368.986
0.95852	377.331
0.984102	389.252
1.00195	402.402
1.01402	416.774
1.02217	429.958
0.161444	268.454
0.224357	295.858
0.269277	305.308
0.317904	308.739
0.370448	313.357
0.419075	316.787
0.47363	323.801
0.518585	334.452
0.574906	335.452
0.619721	341.299
0.674206	345.91
0.722798	348.14
0.767719	357.59
0.816346	361.02
0.857244	365.68
0.874852	370.422
0.90414	376.324
0.931593	385.836
0.951246	394.174
0.963172	403.741
0.984906	416.877
0.998842	428.84
1.01281	442.003
