Adsorption isotherm of Nitrogen on B-COF-1
DOI: 10.1021/jacs.0c00923
Article source: Figure 2c
Adsorbate Nitrogen: InChIKey IJGRMHOSHXDMSA-UHFFFAOYSA-N
Kind: experiment
Temperature: 77 K
Tabular data in the source: 0
pressure (bar)	uptake (cm3(STP)/g)
0.020606	27.5676
0.017246	43.0984
0.020312	61.9182
0.023377	80.738
0.032176	89.5542
0.050179	114.941
0.076345	136.958
0.091339	144.632
0.112528	151.165
0.129607	158.828
0.146627	165.383
0.165761	172.48
0.212273	224.858
0.245737	226.891
0.283486	231.116
0.329455	233.081
0.377509	235.034
0.42759	235.869
0.477786	238.918
0.527866	239.752
0.578062	242.802
0.630112	241.409
0.673939	242.278
0.724077	244.22
0.776415	248.366
0.826496	249.2
0.861987	250.114
0.885087	253.312
0.914555	258.691
0.931403	261.923
0.956818	269.54
0.974012	279.418
1.01326	312.445
1.02872	328.981
1.03821	351.089
0.225472	238.082
0.277637	238.905
0.325749	241.966
0.37994	241.669
0.423941	245.861
0.488669	247.723
0.52827	247.507
0.578409	249.448
0.630689	252.487
0.676543	252.236
0.734961	253.025
0.78313	257.193
0.835353	259.124
0.862679	263.407
0.883869	269.939
0.911253	275.329
0.936842	286.27
0.95832	298.341
0.984486	320.358
1.0026	347.96
1.0202	365.592
1.0374	375.471
