Adsorption isotherm of Nitrogen on [Cu2(bdc)2(dabco)]bulk
DOI: 10.1016/j.micromeso.2013.09.001
Adsorbate Nitrogen: InChIKey IJGRMHOSHXDMSA-UHFFFAOYSA-N
Temperature: 77 K
Tabular data in the source: 0
pressure (bar)	uptake (ml/g)
0.000613551	15.9463
0.00115041	29.8993
0.00260759	67.7719
0.00328506	2.04592
0.00727314	105.697
0.00927996	241.188
0.00956118	81.8301
0.0100213	93.7899
0.0110184	119.703
0.0116319	135.649
0.012092	147.609
0.0122583	235.261
0.0125522	159.568
0.0127951	249.214
0.0129357	169.535
0.013626	187.475
0.0143162	205.414
0.0146229	213.387
0.0149297	221.36
0.0151598	227.34
0.0163103	257.24
0.0166937	267.206
0.0170004	275.179
0.0173072	283.152
0.0175373	289.132
0.0210524	297.158
0.024491	303.191
0.031061	307.282
0.0375545	309.381
0.0634514	315.782
0.0988201	318.354
0.140605	321.032
0.185522	321.768
0.252975	324.867
0.32035	325.972
0.387726	327.077
0.458386	330.228
0.52897	331.386
0.590083	336.373
0.911149	347.615
0.986093	378.725
