Adsorption isotherm of Cyclohexane on Pyrolized coal steam activated for 5h
DOI: 10.1021/la00001a042
Article source: Figure 2
Adsorbate Cyclohexane: InChIKey XDTMQSROBMDMFD-UHFFFAOYSA-N
Kind: experiment
Temperature: 303 K
Tabular data in the source: 0
pressure (bar)	uptake (mmol/g)
0.000415	1.53971
0.00235	1.74183
0.002736	1.78394
0.00547	1.83891
0.005855	1.89785
0.008988	1.88555
0.014266	1.945
0.017972	2.06317
0.022093	1.97105
0.037147	2.11565
0.043022	2.09523
0.05906	2.19787
0.07746	2.17875
0.078627	2.25039
0.126772	2.28486
0.127743	2.35227
0.159838	2.38927
0.161393	2.48619
