Adsorption isotherm of Cyclohexane on Pyrolized coal steam activated for 10h
DOI: 10.1021/la00001a042
Article source: Figure 2
Adsorbate Cyclohexane: InChIKey XDTMQSROBMDMFD-UHFFFAOYSA-N
Kind: experiment
Temperature: 303 K
Tabular data in the source: 0
pressure (bar)	uptake (mmol/g)
0.000621	1.45139
0.001948	1.83013
0.004284	1.94816
0.007201	2.11674
0.012867	2.20988
0.015212	2.24377
0.021078	2.29066
0.026946	2.32493
0.037314	2.3807
0.04279	2.41492
0.058824	2.55542
0.06939	2.58597
0.074865	2.63702
0.090904	2.72703
0.103422	2.80406
0.113011	2.82189
0.159957	3.07919
0.161519	3.1088
