Adsorption isotherm of Benzene on Demineralized pyrolized coal steam activated for 5h
DOI: 10.1021/la00001a042
Article source: Figure 1
Adsorbate Benzene: InChIKey UHOVQNZJYSORNB-UHFFFAOYSA-N
Kind: experiment
Temperature: 303 K
Tabular data in the source: 0
pressure (bar)	uptake (mmol/g)
6.6e-05	2.40624
0.001412	2.75098
0.002179	2.83499
0.004478	3.0702
0.006008	3.14567
0.009067	3.20408
0.01136	3.22895
0.012889	3.23712
0.014418	3.27053
0.016903	3.32062
0.021491	3.39561
0.024547	3.36988
0.042127	3.48486
0.062952	3.50677
0.064867	3.69156
0.079389	3.75655
0.095821	3.81282
0.104991	3.7777
0.105566	3.86174
0.132696	3.89947
0.150849	3.99754
0.158325	4.91341
