Adsorption isotherm of Benzene on Demineralized pyrolized coal steam activated for 10h
DOI: 10.1021/la00001a042
Article source: Figure 1
Adsorbate Benzene: InChIKey UHOVQNZJYSORNB-UHFFFAOYSA-N
Kind: experiment
Temperature: 303 K
Tabular data in the source: 0
pressure (bar)	uptake (mmol/g)
6.5e-05	2.39783
0.000463	2.96146
0.001412	2.75098
0.001804	3.10428
0.00237	2.82654
0.003726	3.50782
0.01234	4.11221
0.014254	4.24652
0.023807	4.27865
0.047889	4.63658
0.068908	4.72577
0.100244	4.87221
0.132727	5.01846
0.150886	5.34368
0.158362	6.27638
