Adsorption isotherm of Cyclohexane on Demineralized pyrolized coal steam activated for 10h
DOI: 10.1021/la00001a042
Article source: Figure 2
Adsorbate Cyclohexane: InChIKey XDTMQSROBMDMFD-UHFFFAOYSA-N
Kind: experiment
Temperature: 303 K
Tabular data in the source: 0
pressure (bar)	uptake (mmol/g)
0.000102	2.39784
0.00088	2.51809
0.002238	2.82469
0.00536	3.07732
0.008682	3.20377
0.012985	3.28823
0.013963	3.30032
0.021982	3.44515
0.032745	3.51206
0.045267	3.62116
0.055639	3.65799
0.079707	3.84608
0.086361	3.84658
0.107493	4.02844
0.131759	4.13842
0.159543	4.38088
