Adsorption isotherm of Cyclohexane on Demineralized pyrolized coal steam activated for 5h
DOI: 10.1021/la00001a042
Article source: Figure 2
Adsorbate Cyclohexane: InChIKey XDTMQSROBMDMFD-UHFFFAOYSA-N
Kind: experiment
Temperature: 303 K
Tabular data in the source: 0
pressure (bar)	uptake (mmol/g)
0.000512	1.92912
0.001091	2.12148
0.002455	2.28384
0.005387	2.38021
0.007536	2.48253
0.008711	2.46459
0.013994	2.51907
0.018102	2.56745
0.022017	2.56174
0.037085	2.63498
0.042566	2.62937
0.059001	2.78084
0.077402	2.7161
0.07857	2.88446
0.126716	2.96617
0.127692	3.02634
0.138262	3.01511
0.159398	3.08279
