Adsorption isotherm of Benzene on Pyrolized coal steam activated for 10h
DOI: 10.1021/la00001a042
Article source: Figure 1
Adsorbate Benzene: InChIKey UHOVQNZJYSORNB-UHFFFAOYSA-N
Kind: experiment
Temperature: 303 K
Tabular data in the source: 0
pressure (bar)	uptake (mmol/g)
0.000765	2.45695
0.001148	2.61589
0.00153	2.76821
0.003826	2.71523
0.007269	2.95364
0.012242	3.16556
0.01339	3.15232
0.014538	3.25828
0.023719	3.33775
0.048012	3.54967
0.069053	3.70199
0.100233	3.90728
0.132751	4.13907
0.136576	4.1457
0.151305	4.27815
0.158382	5.13245
