Adsorption isotherm of Benzene on Pyrolized coal steam activated for 2.5h
DOI: 10.1021/la00001a042
Article source: Figure 1
Adsorbate Benzene: InChIKey UHOVQNZJYSORNB-UHFFFAOYSA-N
Kind: experiment
Temperature: 303 K
Tabular data in the source: 0
pressure (bar)	uptake (mmol/g)
0.000191	1.33775
0.001148	1.48344
0.002487	1.52318
0.004208	1.63576
0.0044	1.53642
0.006121	1.60265
0.00899	1.62914
0.011477	1.72185
0.013007	1.64901
0.014538	1.75497
0.016833	1.66887
0.021615	1.78808
0.024484	1.72848
0.042082	1.77483
0.042465	1.84768
0.063124	1.80132
0.065228	1.90728
0.079383	1.92053
0.095642	1.92053
0.105015	1.87417
0.10578	1.94702
0.132751	1.99338
0.151688	1.94702
0.158382	2.5894
