Adsorption isotherm of Cyclohexane on Pyrolized coal steam activated for 2.5h
DOI: 10.1021/la00001a042
Article source: Figure 2
Adsorbate Cyclohexane: InChIKey XDTMQSROBMDMFD-UHFFFAOYSA-N
Kind: experiment
Temperature: 303 K
Tabular data in the source: 0
pressure (bar)	uptake (mmol/g)
0.000308	0.744623
0.001475	0.81626
0.002632	0.967823
0.003031	0.89635
0.005181	0.926021
0.007322	1.03562
0.009092	0.955877
0.014178	0.985854
0.018081	1.08722
0.0222	1.01193
0.037258	1.12288
0.04294	1.07299
0.058979	1.17142
0.077578	1.12288
0.07855	1.19029
0.1267	1.17848
0.127672	1.23748
0.159771	1.24503
0.161724	1.27889
