Adsorption isotherm of Benzene on Pyrolized coal steam activated for 5h
DOI: 10.1021/la00001a042
Article source: Figure 1
Adsorbate Benzene: InChIKey UHOVQNZJYSORNB-UHFFFAOYSA-N
Kind: experiment
Temperature: 303 K
Tabular data in the source: 0
pressure (bar)	uptake (mmol/g)
0.000574	1.92053
0.00153	2.13907
0.004017	2.29139
0.00593	2.38411
0.01186	2.50993
0.014538	2.47682
0.017216	2.5298
0.018172	2.55629
0.024102	2.59603
0.029266	2.60927
0.045908	2.66225
0.054325	2.69536
0.059107	2.77483
0.074983	2.87417
0.105015	2.88742
0.107692	2.94702
0.133133	3.01987
0.151496	3
0.158382	3.80132
