Adsorption isotherm of Nitrogen on UMCM-1-OBnNO2
DOI: 10.1002/anie.201004736
Adsorbate Nitrogen: InChIKey IJGRMHOSHXDMSA-UHFFFAOYSA-N
Temperature: 77 K
Tabular data in the source: 0
pressure (bar)	uptake (cm3(STP)/g)
0.00547972	470.996
0.00571867	386.883
0.00879305	504.622
0.0186374	639.145
0.0388519	723.14
0.0456378	734.316
0.0626186	756.648
0.0864172	778.94
0.103398	801.272
0.120395	817.997
0.130605	823.545
0.144209	834.682
0.164567	868.209
0.17465	918.618
0.177932	963.459
0.181245	997.085
0.187999	1019.48
0.222056	1030.49
0.279976	1041.37
0.389029	1051.96
0.433328	1057.31
0.484446	1062.62
0.583288	1067.66
0.862786	1077.26
0.893466	1077.09
0.91051	1076.99
0.930964	1076.87
0.954826	1076.73
0.968446	1082.26
