Adsorption isotherm of Nitrogen on UMCM-1-(OBnNO2)2
DOI: 10.1002/anie.201004736
Adsorbate Nitrogen: InChIKey IJGRMHOSHXDMSA-UHFFFAOYSA-N
Temperature: 77 K
Tabular data in the source: 0
pressure (bar)	uptake (cm3(STP)/g)
0.00281296	202.817
0.00316259	78.8732
0.00901101	405.634
0.0122848	445.07
0.0255868	529.577
0.0457225	591.549
0.0625685	619.718
0.0895697	647.887
0.109833	664.789
0.160498	704.225
0.180697	743.662
0.183796	845.07
0.190534	856.338
0.234509	867.606
0.437534	895.775
0.478155	895.775
0.877564	907.042
0.911399	912.676
0.955405	912.676
0.96556	912.676
