Adsorption isotherm of Nitrogen on UMCM-1-OH
DOI: 10.1002/anie.201004736
Adsorbate Nitrogen: InChIKey IJGRMHOSHXDMSA-UHFFFAOYSA-N
Temperature: 77 K
Tabular data in the source: 0
pressure (bar)	uptake (cm3(STP)/g)
0.00301066	140.17
0.00587796	330.807
0.0151011	684.025
0.0420537	796.019
0.0555937	829.586
0.0759675	857.505
0.0895553	874.249
0.109961	890.954
0.130366	907.659
0.147363	924.383
0.174523	963.479
0.181261	991.477
0.184415	1081.18
0.201332	1125.94
0.228571	1137
0.242191	1142.53
0.276264	1147.94
0.388726	1158.5
0.433026	1163.86
0.484143	1169.17
0.746596	1178.87
0.910208	1183.53
0.930661	1183.41
0.954523	1183.28
0.968159	1183.2
