Adsorption isotherm of Nitrogen on UMCM-1-CAT
DOI: 10.1002/anie.201004736
Adsorbate Nitrogen: InChIKey IJGRMHOSHXDMSA-UHFFFAOYSA-N
Temperature: 77 K
Tabular data in the source: 0
pressure (bar)	uptake (cm3(STP)/g)
0.00856602	563.38
0.00872494	507.042
0.0217408	692.958
0.0484878	811.268
0.0585795	833.803
0.0889499	867.606
0.105812	890.141
0.139583	918.31
0.173291	969.014
0.179998	991.549
0.186498	1087.32
0.206649	1143.66
0.230313	1154.93
0.274303	1160.56
0.389349	1177.46
0.433339	1183.1
0.477345	1183.1
0.812405	1205.63
0.866566	1205.63
0.927482	1211.27
0.947777	1216.9
0.964702	1216.9
