Adsorption isotherm of Argon on MIL-100(Fe)-3-0F
DOI: 10.1016/j.cej.2015.06.044
Article source: Figure 4a- 3 0F
Adsorbate Argon: InChIKey XKRFYHLGVUSROY-UHFFFAOYSA-N
Kind: experiment
Temperature: 87 K
Tabular data in the source: 0
pressure (bar)	uptake (cm3(STP)/g)
0.001307	122.2
0.001712	40.98
0.001793	47.47
0.002037	72.24
0.002118	7.48
0.00228	14.13
0.002361	65.6
0.002442	59.77
0.003911	183.64
0.005127	224.29
0.005532	207.83
0.007083	238.67
0.00838	260.2
0.008461	259.28
0.01074	269.35
0.020265	317.15
0.026689	328.53
0.031168	336.43
0.040125	356.63
0.051108	378.57
0.061362	406.25
0.071292	439.59
0.077068	447.73
0.080807	455.63
0.090331	468.6
0.10091	480.73
0.126626	507.08
0.15218	575.41
0.152261	575.8
0.178139	587.2
0.20263	595.59
0.228265	600.16
0.254305	607.05
0.279292	611.45
0.304927	616.93
0.329175	618.84
0.355134	625.32
0.379148	627.81
0.405837	632.37
0.429598	634.78
0.456864	639.43
0.480544	641.25
0.507476	645.73
0.530994	648.39
0.557612	653.2
0.581048	654.44
0.608548	659.67
0.633454	660.08
0.658521	665.48
0.683994	667.39
0.709214	671.62
0.733796	673.36
0.760404	675.26
0.785634	677.17
0.810377	681.15
0.835354	682.06
0.861394	685.55
0.885895	687.79
0.912827	691.35
0.937246	694.01
0.962223	696.83
0.987453	698.57
1.0034	713.94
1.00869	742.79
