Adsorption isotherm of Argon on MIL-100(Fe)-4-0F
DOI: 10.1016/j.cej.2015.06.044
Article source: Figure 4a- 4 0F
Adsorbate Argon: InChIKey XKRFYHLGVUSROY-UHFFFAOYSA-N
Kind: experiment
Temperature: 87 K
Tabular data in the source: 0
pressure (bar)	uptake (cm3(STP)/g)
0.000578	105.19
0.001155	137.99
0.00767	228.18
0.023386	285.28
0.027783	294.26
0.03438	312.05
0.049771	337.49
0.061575	368.82
0.070289	391.1
0.074687	399.16
0.081364	406.73
0.090483	416.37
0.101234	429.25
0.128095	447.79
0.153751	506.06
0.156192	504.39
0.17662	508.63
0.202843	514.95
0.228731	521.84
0.253312	526.58
0.279282	530.32
0.305252	535.14
0.328952	536.88
0.35638	541.53
0.379097	543.11
0.403851	546.1
0.407914	548.93
0.430631	548.84
0.455051	551.5
0.457249	553.41
0.481598	554.08
0.506017	557.65
0.508621	559.97
0.530609	561.14
0.55674	564.71
0.582791	567.45
0.606481	568.28
0.60795	569.36
0.632045	571.6
0.65688	573.51
0.658501	574.51
0.683498	576.25
0.709062	579.99
0.733897	581.9
0.760272	584.89
0.761001	585.39
0.785096	585.55
0.809283	589.5
0.810337	589.54
0.837046	591.04
0.860249	594.11
0.86187	596.44
0.886462	596.52
0.912594	599.59
0.913566	600
0.938239	602.17
0.960622	608.82
0.96356	606.16
0.988385	613.72
1.00288	648.63
1.00859	695.68
