Adsorption isotherm of Argon on MIL-100(Fe)-2-0F
DOI: 10.1016/j.cej.2015.06.044
Article source: Figure 3a- 2
Adsorbate Argon: InChIKey XKRFYHLGVUSROY-UHFFFAOYSA-N
Kind: experiment
Temperature: 87 K
Tabular data in the source: 0
pressure (bar)	uptake (cm3(STP)/g)
0.004114	96.91
0.00461	113.92
0.004833	64.95
0.006252	128.8
0.008947	140.53
0.010082	153.82
0.010578	154.38
0.021319	192.65
0.02985	204.14
0.040652	218.86
0.050328	241.54
0.060278	257.36
0.070725	272.56
0.07954	281.14
0.090706	290.04
0.101021	299.72
0.126119	314.99
0.15065	339.48
0.153558	346.49
0.176245	350.58
0.202407	366.41
0.202691	366.5
0.228002	367.98
0.252958	376.1
0.254316	383.89
0.278421	384.13
0.303945	391.45
0.329397	398.93
0.354141	414.68
0.354708	414.72
0.379959	411.77
0.405057	429.88
0.40527	429.94
0.431644	425.16
0.456317	432.65
0.456743	432.16
0.481486	437.83
0.506372	453.84
0.506726	453.9
0.532189	450.36
0.557642	455.94
0.557713	455.87
0.583662	461.46
0.607768	476.74
0.608487	476.44
0.634294	472.17
0.658471	487.84
0.659322	477.53
0.684846	482.96
0.708809	488.67
0.708951	488.55
0.735336	494.54
0.759715	509.81
0.761143	500.21
0.784894	507.22
0.811056	514.46
0.811623	523.51
0.835658	521.47
0.860401	539.26
0.860685	539.39
0.886421	541.47
0.910101	552.34
0.911307	563.36
0.936061	567.22
0.963287	592.84
0.963358	592.81
0.987027	648.47
1.00153	767.82
1.00592	891.65
