Adsorption isotherm of Argon on MIL-100(Fe)-4-0F
DOI: 10.1016/j.cej.2015.06.044
Article source: Figure 3a- 4
Adsorbate Argon: InChIKey XKRFYHLGVUSROY-UHFFFAOYSA-N
Kind: experiment
Temperature: 87 K
Tabular data in the source: 0
pressure (bar)	uptake (cm3(STP)/g)
0.002837	28.71
0.002908	20.94
0.003263	30
0.003334	48.42
0.003405	57.08
0.003526	139.5
0.003607	74.08
0.003627	75.77
0.003658	171.23
0.00382	65.26
0.003891	121.88
0.004154	192.64
0.005168	89.2
0.005208	209.88
0.006414	222.4
0.006698	234.84
0.007974	245.71
0.009687	252
0.021055	283.26
0.024956	292.47
0.029222	300.74
0.039811	315.3
0.050622	336.24
0.061281	367.34
0.069519	390.72
0.07421	400.64
0.079115	407.81
0.090352	417.1
0.10094	428.28
0.126454	461.82
0.153467	507.01
0.176934	512.05
0.202599	518.35
0.227485	521.11
0.252938	526.31
0.279464	529.61
0.304917	534.18
0.327594	536.31
0.355539	540.48
0.378793	543.08
0.404672	547.65
0.40531	549.15
0.428919	548.76
0.455223	552.85
0.455507	552.96
0.48026	554.27
0.50628	557.97
0.506635	558.12
0.530811	560.18
0.556761	565.14
0.556832	565.14
0.58193	566.72
0.606673	569.95
0.631417	571.6
0.657376	574.91
0.682687	576.33
0.708069	579.48
0.734383	581.14
0.759978	584.6
0.7838	586.57
0.809607	588.7
0.835556	590.91
0.860016	594.37
0.885266	595.48
0.911074	599.65
0.938016	600.83
0.961696	605.95
0.988142	613.2
1.00186	647.05
1.00775	692.79
