Adsorption isotherm of Argon on MIL-100(Fe)-1-0F
DOI: 10.1016/j.cej.2015.06.044
Article source: Figure 3a- 1
Adsorbate Argon: InChIKey XKRFYHLGVUSROY-UHFFFAOYSA-N
Kind: experiment
Temperature: 87 K
Tabular data in the source: 0
pressure (bar)	uptake (cm3(STP)/g)
0.005066	111.28
0.005279	83.73
0.005917	102.7
0.007701	136.29
0.007701	136.33
0.007772	138.35
0.007843	138.48
0.009413	145.59
0.02065	171.71
0.028837	182.57
0.039507	195.63
0.050105	210.27
0.060136	228.6
0.071019	241.19
0.076217	244.02
0.080482	248.35
0.091152	256.06
0.101538	262
0.101609	262.04
0.126079	277.69
0.152474	300.82
0.152535	300.88
0.177724	306.32
0.200694	317.64
0.202255	315.76
0.228508	323.54
0.252907	330.14
0.253191	335.89
0.278867	339.42
0.303549	349.41
0.304046	349.42
0.329651	352.31
0.353908	365.41
0.354121	365.45
0.380435	365.83
0.404621	380.3
0.406323	372.12
0.430226	377.07
0.455973	390.91
0.456469	390.89
0.482429	387.44
0.504842	391.13
0.506544	400.5
0.532432	396.4
0.55669	400.01
0.557257	407.88
0.584078	405.27
0.607616	417.86
0.607899	417.9
0.63166	413.52
0.65762	418
0.659899	426.19
0.682941	421.53
0.708616	435.06
0.710471	427.04
0.733583	431.51
0.758691	443.94
0.760758	436.94
0.786434	442.04
0.810114	446.68
0.811755	454.94
0.835222	452.34
0.860969	467.68
0.861181	459.33
0.886867	466.33
0.91155	484.58
0.91304	476.16
0.938006	487.25
0.961625	515.93
0.962831	517.7
0.988871	540.12
1.00196	610.71
1.00823	662.96
