Adsorption isotherm of Argon on MIL-100(Fe)-4-1F
DOI: 10.1016/j.cej.2015.06.044
Article source: Figure 4a- 4 1F
Adsorbate Argon: InChIKey XKRFYHLGVUSROY-UHFFFAOYSA-N
Kind: experiment
Temperature: 87 K
Tabular data in the source: 0
pressure (bar)	uptake (cm3(STP)/g)
0.000405	10.31
0.001398	68.83
0.004661	112.55
0.004904	141.81
0.006292	172.82
0.006779	160.02
0.009069	192.6
0.011673	207.81
0.020468	243.72
0.023082	253.95
0.030246	265.58
0.040662	285.62
0.051088	307.31
0.051169	307.51
0.060643	333.9
0.070603	364.64
0.075122	374.14
0.081719	387.08
0.091284	400.14
0.100585	415.18
0.126829	462.55
0.152028	505.43
0.178008	521.92
0.202559	538.28
0.228528	550.42
0.25386	562.3
0.279181	573.38
0.304765	582.74
0.330877	591.85
0.354516	599.5
0.380232	606.49
0.404915	614.01
0.430246	619.68
0.455952	627.2
0.480635	633.8
0.50545	644.09
0.531156	648.97
0.557906	658.99
0.583105	664.27
0.606886	667.7
0.607008	667.77
0.632724	674.95
0.657275	680.1
0.658704	684.98
0.68364	688.8
0.709478	697.64
0.734029	702.92
0.759877	711.36
0.785076	717.69
0.810661	725.74
0.836245	730.62
0.861445	737.74
0.885996	743.68
0.913384	752.52
0.93678	758.45
0.96275	765.18
0.988466	771.25
1.00552	777.58
