Adsorption isotherm of Argon on MIL-100(Fe)-3-0F
DOI: 10.1016/j.cej.2015.06.044
Article source: Figure 3a- 3
Adsorbate Argon: InChIKey XKRFYHLGVUSROY-UHFFFAOYSA-N
Kind: experiment
Temperature: 87 K
Tabular data in the source: 0
pressure (bar)	uptake (cm3(STP)/g)
0.001682	99.42
0.002624	35.27
0.002908	26.76
0.003334	56.13
0.003334	55.67
0.003405	104.22
0.003597	117.13
0.005583	135.47
0.006789	149.88
0.008643	158.93
0.009849	165.86
0.012118	171.82
0.012686	172.63
0.020427	219.15
0.025189	227.18
0.030519	237.33
0.039831	252.76
0.050926	272.2
0.060167	295.26
0.069691	316.91
0.076865	325.96
0.081273	329.97
0.090453	340.36
0.102176	351.22
0.125501	372.87
0.152585	414.66
0.176478	425.28
0.203643	436.69
0.227181	444.71
0.252988	455.1
0.27838	463.12
0.304188	474.45
0.329367	480.51
0.355033	492.65
0.355671	493.09
0.379634	496.47
0.404743	503.4
0.405523	512.45
0.430196	510.95
0.455588	518.42
0.455861	518.95
0.480615	526.44
0.505571	534.29
0.505784	534.07
0.531034	541.62
0.556487	549.4
0.556842	549.1
0.582801	555.55
0.607545	569.87
0.607616	569.87
0.632937	568.36
0.657964	584.29
0.658248	584.42
0.683711	583.62
0.709305	596.13
0.73412	597.62
0.759441	610.61
0.760718	604.07
0.785897	610.84
0.810215	626.15
0.810499	626.18
0.835739	624.44
0.859844	641.84
0.860847	632.31
0.886158	647.26
0.911398	657.8
0.912533	663.47
0.937216	669.84
0.960247	686.32
0.961605	686.29
0.988689	726.35
1.00155	776.89
1.00758	855.52
