Adsorption isotherm of Nitrogen on [Fe^(III)(Tp)(CN)3]4Co^(II)2
DOI: 10.1021/Ja908670u
Adsorbate Nitrogen: InChIKey IJGRMHOSHXDMSA-UHFFFAOYSA-N
Temperature: 77 K
Tabular data in the source: 0
pressure (bar)	uptake (cm3(STP)/g)
0.0604065	0.361446
0.137341	0.240964
0.170308	0.240964
0.263703	0.361446
0.335143	0.240964
0.362593	0.481928
0.420286	0.481928
0.466989	0.481928
0.51645	0.361446
0.571384	0.481928
0.620824	0.60241
0.675769	0.60241
0.722472	0.60241
0.769154	0.843373
0.824077	1.08434
0.870758	1.3253
0.900967	1.44578
0.914692	1.56627
0.961329	2.28916
0.977691	3.61446
0.991383	4.09639
0.999504	5.42169
1.00757	7.3494
1.00759	7.10843
1.01003	10.4819
1.01017	8.91566
