Adsorption isotherm of Carbon Dioxide on [Fe^(III)(Tp)(CN)3]4Co^(II)2
DOI: 10.1021/Ja908670u
Adsorbate Carbon Dioxide: InChIKey CURLTUGMZLYLDI-UHFFFAOYSA-N
Temperature: 298 K
Tabular data in the source: 0
pressure (bar)	uptake (cm3(STP)/g)
0.0191859	0.49049
0.0328551	1.22256
0.054777	1.83517
0.0821822	2.57057
0.0985875	3.42476
0.134245	4.04071
0.202747	6.00067
0.252097	7.10577
0.301457	8.08942
0.348093	8.8295
0.4002	9.81381
0.455077	10.5559
0.498966	11.2953
0.553865	11.7945
0.608742	12.5365
0.655389	13.1552
0.69931	13.5302
0.751451	14.1502
0.806362	14.5279
0.855767	15.0257
0.905172	15.5235
0.932622	15.7731
0.954588	15.8999
0.995762	16.2743
