Adsorption isotherm of Hydrogen on [Fe^(III)(Tp)(CN)3]4Co^(II)2
DOI: 10.1021/Ja908670u
Adsorbate Hydrogen: InChIKey UFHFLCQGNIYNRP-UHFFFAOYSA-N
Temperature: 77 K
Tabular data in the source: 0
pressure (bar)	uptake (cm3(STP)/g)
0.00766322	6.31765
0.00808586	1.70237
0.0154265	11.5422
0.0286175	17.4968
0.0665554	23.2145
0.0856301	24.9196
0.107519	25.8966
0.126693	26.5085
0.156835	27.366
0.203459	28.2276
0.250106	28.8462
0.302258	29.3447
0.351674	29.7211
0.403848	29.9766
0.456023	30.2322
0.502692	30.6079
0.552119	30.8629
0.607051	30.9977
0.650973	31.3727
0.700412	31.5062
0.752586	31.7618
0.804783	31.7744
0.85421	32.0294
0.903648	32.1628
0.953075	32.4178
1.00251	32.5512
