Adsorption isotherm of Nitrogen on [Cu(INA)2]
DOI: 10.1016/j.jssc.2015.02.014
Article source: Figure 10a
Adsorbate Nitrogen: InChIKey IJGRMHOSHXDMSA-UHFFFAOYSA-N
Kind: experiment
Temperature: 77 K
Tabular data in the source: 0
pressure (bar)	uptake (g/ml)
0.005692	0.005618
0.009487	10.4738
0.018975	11.1721
0.03036	12.0449
0.041744	12.394
0.060719	13.4414
0.083489	14.1397
0.100566	20.2494
0.102464	15.0125
0.151798	16.409
0.201132	23.5661
0.20303	17.6309
0.252364	19.3766
0.301698	26.1845
0.305493	20.4239
0.404161	29.5012
0.406059	23.3915
0.506625	25.4863
0.609089	28.803
0.707757	48.005
0.709655	31.0723
0.812118	49.7506
0.910786	53.7656
0.912684	44.5137
0.99048	64.7631
0.994275	63.8903
