Adsorption isotherm of Water on [Cu(INA)2]
DOI: 10.1016/j.jssc.2015.02.014
Article source: Figure 10b
Adsorbate Water: InChIKey XLYOFNOQVPJJNP-UHFFFAOYSA-N
Kind: experiment
Temperature: 298 K
Tabular data in the source: 0
pressure (bar)	uptake (cm3(STP)/g)
0.016998	2.50627
0.026439	4.01003
0.037779	5.26316
0.041215	23.8095
0.060449	8.27068
0.065685	31.8296
0.08123	11.0276
0.084562	35.0877
0.102025	13.0326
0.103431	38.8471
0.154964	17.7945
0.156351	44.6115
0.203619	48.8722
0.206006	22.807
0.2982	54.8872
0.311928	30.0752
0.394691	60.1504
0.412169	37.3434
0.50247	69.4236
0.510458	47.619
0.602629	80.9524
0.610575	61.4035
0.708622	84.4612
0.712695	69.4236
0.805179	86.2155
0.809157	76.1905
0.905533	87.4687
0.907527	82.2055
0.988857	87.9699
1.00211	87.9699
