Adsorption isotherm of Water on [Cu(INA)2(NH3)2(H2O)2]
DOI: 10.1016/j.jssc.2015.02.014
Article source: Figure 10b
Adsorbate Water: InChIKey XLYOFNOQVPJJNP-UHFFFAOYSA-N
Kind: experiment
Temperature: 298 K
Tabular data in the source: 0
pressure (bar)	uptake (cm3(STP)/g)
0.00759	0.250627
0.018975	0.75188
0.028462	1.00251
0.036052	1.25313
0.039847	11.0276
0.060719	14.5363
0.062617	2.25564
0.079694	16.2907
0.081591	2.75689
0.092976	17.2932
0.098669	3.25815
0.151798	20.0501
0.155593	4.7619
0.19544	21.5539
0.208722	6.26566
0.301698	24.3108
0.305493	8.5213
0.404161	26.0652
0.407957	10.7769
0.499035	27.0677
0.51042	13.2832
0.609089	15.7895
0.707757	28.8221
0.715347	18.5464
0.802631	29.3233
0.81022	20.802
0.901299	29.8246
0.912684	25.0627
0.984788	30.0752
1.00566	29.8246
