Adsorption isotherm of 1-cyclopropyl-6-fluoro-4-oxo-7-piperazin-1-ylquinoline-3-carboxylic acid, Water on CMC-stabilized Fe-Mn nanoparticles (CMC-FMBO)
DOI: 10.1016/j.cej.2016.12.019
Article source: Figure 8
Adsorbate 1-cyclopropyl-6-fluoro-4-oxo-7-piperazin-1-ylquinoline-3-carboxylic acid: InChIKey MYSWGUAQZAJSOK-UHFFFAOYSA-N
Adsorbate Water: InChIKey XLYOFNOQVPJJNP-UHFFFAOYSA-N
Kind: experiment
Temperature: 308 K
Tabular data in the source: 0
pressure (bar)	1-cyclopropyl-6-fluoro-4-oxo-7-piperazin-1-ylquinoline-3-carboxylic acid fraction	1-cyclopropyl-6-fluoro-4-oxo-7-piperazin-1-ylquinoline-3-carboxylic acid uptake (mmol adsorbed)	Water fraction	Water uptake (mmol adsorbed)	total uptake (mmol adsorbed)
1.01325	8.305	234.7			
1.01325	17.025	497			
1.01325	25.554	730.6			
1.01325	34.32	929			
1.01325	51.516	1291.6			
1.01325	69.087	1515.7			
1.01325	86.26	1884.8			
1.01325	120.807	2097.3			
1.01325	172.824	2796.3			
