Adsorption isotherm of 1-cyclopropyl-6-fluoro-4-oxo-7-piperazin-1-ylquinoline-3-carboxylic acid, Water on CMC-stabilized Fe-Mn nanoparticles (CMC-FMBO)
DOI: 10.1016/j.cej.2016.12.019
Article source: Figure 8
Adsorbate 1-cyclopropyl-6-fluoro-4-oxo-7-piperazin-1-ylquinoline-3-carboxylic acid: InChIKey MYSWGUAQZAJSOK-UHFFFAOYSA-N
Adsorbate Water: InChIKey XLYOFNOQVPJJNP-UHFFFAOYSA-N
Kind: experiment
Temperature: 318 K
Tabular data in the source: 0
pressure (bar)	1-cyclopropyl-6-fluoro-4-oxo-7-piperazin-1-ylquinoline-3-carboxylic acid fraction	1-cyclopropyl-6-fluoro-4-oxo-7-piperazin-1-ylquinoline-3-carboxylic acid uptake (mmol adsorbed)	Water fraction	Water uptake (mmol adsorbed)	total uptake (mmol adsorbed)
1.01325	8.543	149.9			
1.01325	17.158	195.6			
1.01325	25.931	417.4			
1.01325	34.324	607.1			
1.01325	51.78	702			
1.01325	69.023	1133.7			
1.01325	86.859	1303.1			
1.01325	121.166	1491.3			
1.01325	172.927	2393.3			
