Adsorption isotherm of 1-cyclopropyl-6-fluoro-4-oxo-7-piperazin-1-ylquinoline-3-carboxylic acid, Water on CMC-stabilized Fe-Mn nanoparticles (CMC-FMBO)
DOI: 10.1016/j.cej.2016.12.019
Article source: Figure 8
Adsorbate 1-cyclopropyl-6-fluoro-4-oxo-7-piperazin-1-ylquinoline-3-carboxylic acid: InChIKey MYSWGUAQZAJSOK-UHFFFAOYSA-N
Adsorbate Water: InChIKey XLYOFNOQVPJJNP-UHFFFAOYSA-N
Kind: experiment
Temperature: 298 K
Tabular data in the source: 0
pressure (bar)	1-cyclopropyl-6-fluoro-4-oxo-7-piperazin-1-ylquinoline-3-carboxylic acid fraction	1-cyclopropyl-6-fluoro-4-oxo-7-piperazin-1-ylquinoline-3-carboxylic acid uptake (mmol adsorbed)	Water fraction	Water uptake (mmol adsorbed)	total uptake (mmol adsorbed)
1.01325	8.248	315.7			
1.01325	17.255	703.4			
1.01325	25.586	1184.1			
1.01325	34.124	1219.7			
1.01325	51.516	1587.1			
1.01325	68.982	1924.1			
1.01325	86.369	2191.7			
1.01325	120.755	2464.4			
1.01325	172.529	3048.8			
