Adsorption isotherm of Ethanol on c-NENU-3a
DOI: 10.1021/jacs.5b08273
Article source: Figure 4b
Adsorbate Ethanol: InChIKey LFQSCWFLJHTTHZ-UHFFFAOYSA-N
Kind: experiment
Temperature: 298 K
Tabular data in the source: 0
pressure (bar)	uptake (wt%)
0	0
0.000655	19.1176
0.00087	0.367647
0.002408	20.2206
0.003473	1.28676
0.006107	3.125
0.007582	21.1397
0.009158	4.59559
0.012214	6.25
0.012315	21.6912
0.015271	7.90441
0.017042	22.0588
0.018321	9.375
0.021391	11.3971
0.022197	22.4265
0.024006	12.6838
0.026628	14.1544
0.027353	22.7941
0.030113	15.8088
0.032074	22.9779
0.033599	17.4632
0.037078	18.9338
0.037229	23.3456
0.040966	19.8529
0.04195	23.5294
0.043998	20.7721
0.047099	23.7132
0.047874	21.3235
0.051756	22.0588
0.051813	23.7132
0.055632	22.6103
0.057391	23.8971
0.059937	23.1618
0.061683	24.0809
0.06467	23.7132
0.066397	24.0809
0.069819	23.8971
0.071534	23.8971
0.075391	23.8971
