Adsorption isotherm of Ethanol on o-NENU-3a
DOI: 10.1021/jacs.5b08273
Article source: Figure 4b
Adsorbate Ethanol: InChIKey LFQSCWFLJHTTHZ-UHFFFAOYSA-N
Kind: experiment
Temperature: 298 K
Tabular data in the source: 0
pressure (bar)	uptake (wt%)
0	0
0.000323	18.7508
0.002069	20.0416
0.003039	1.29393
0.006081	2.77168
0.007257	20.973
0.009123	4.24944
0.011731	5.54235
0.012007	21.5356
0.01477	6.83628
0.017181	21.7317
0.017378	8.12919
0.020851	9.60796
0.021497	22.1095
0.02389	10.9019
0.026928	12.1958
0.027106	22.4904
0.02997	13.6736
0.031846	22.5015
0.033006	14.7837
0.03691	16.2635
0.037024	22.8814
0.040377	17.3746
0.042199	23.0774
0.043843	18.4857
0.046939	23.0886
0.047738	19.414
0.051632	20.3423
0.052114	23.2846
0.055955	21.0878
0.056858	23.4796
0.059846	21.8322
0.061598	23.4908
0.064596	22.3949
0.06677	23.5029
0.069349	23.1414
0.071941	23.5151
0.074958	23.5222
