Adsorption isotherm of Nitrogen on TPT-COF-1
DOI: 10.1002/anie.202010829
Article source: Figure S10a
Adsorbate Nitrogen: InChIKey IJGRMHOSHXDMSA-UHFFFAOYSA-N
Kind: experiment
Temperature: 77 K
Tabular data in the source: 0
pressure (bar)	uptake (cm3(STP)/g)
0.006978	0.416695
0.012775	0.588524
0.020754	0.720028
0.029826	0.811174
0.041079	0.861996
0.048338	0.902602
0.06068	0.953457
0.070121	0.963835
0.079925	0.964127
0.090453	0.994732
0.10062	1.00513
0.120225	1.0562
0.140923	1.04672
0.162709	1.06756
0.181228	1.06811
0.201198	1.0889
0.252757	1.15102
0.305044	1.17277
0.353346	1.08333
0.454289	1.13682
0.505485	1.18884
0.556318	1.24084
0.606787	1.31302
0.658342	1.41553
0.70881	1.49781
0.759637	1.63059
0.81046	1.81385
0.829701	1.88511
0.861283	2.01227
0.885596	2.23008
0.910632	2.50346
0.918615	2.57438
0.924418	2.67553
0.931308	2.7969
0.937834	2.93846
0.942185	3.02946
0.945445	3.14063
0.950882	3.28216
0.955592	3.42366
0.962114	3.61571
0.966456	3.82788
0.971703	4.09057
0.976942	4.45424
0.982176	4.87848
0.987406	5.37341
0.991361	5.91879
0.997834	6.78736
1.00154	8.21121
1.00484	10.3217
1.0052	10.3318
0.994765	9.0491
0.985785	7.70587
0.967075	5.31222
0.957334	4.44355
0.953358	4.191
0.945035	3.79695
0.927647	3.21079
0.911335	2.8266
0.885944	2.44214
0.860907	2.18896
0.835867	1.97617
0.81028	1.80375
0.759999	1.6407
0.709898	1.51804
0.657255	1.3852
0.606058	1.34329
0.504032	1.19889
0.453924	1.15701
0.404543	1.11515
0.353346	1.07324
0.303591	1.18283
0.25203	1.1611
0.201922	1.11922
0.182134	1.08834
0.161255	1.08772
0.141284	1.07702
0.121313	1.07643
0.099894	0.995013
0.090454	0.984635
0.080288	0.964137
0.069398	0.913326
0.059232	0.892829
0.04943	0.872342
0.038538	0.841726
0.031277	0.821315
0.020754	0.720028
