Adsorption isotherm of Nitrogen on TPT-COF-2
DOI: 10.1002/anie.202010829
Article source: Figure S10a
Adsorbate Nitrogen: InChIKey IJGRMHOSHXDMSA-UHFFFAOYSA-N
Kind: experiment
Temperature: 77 K
Tabular data in the source: 0
pressure (bar)	uptake (cm3(STP)/g)
0.119089	0.297438
0.140043	0.33313
0.182399	0.343975
0.202482	0.367588
0.252259	0.390318
0.303787	0.388786
0.333043	0.400021
0.354008	0.375188
0.403785	0.397918
0.507289	0.334317
0.55618	0.429702
0.710749	0.50984
0.810734	0.591601
0.835177	0.651399
0.913744	0.842739
0.929443	0.96332
0.944696	1.13233
0.96082	1.31342
0.971255	1.56731
0.98256	1.83328
0.988187	2.11152
0.995977	2.49865
0.998968	2.8617
1.00282	3.28525
1.00528	4.15672
1.00572	4.1446
0.99664	3.66068
0.988001	3.13438
0.982846	2.6685
0.971575	2.20886
0.961172	1.7855
0.942466	1.39265
0.922206	1.13905
0.889709	0.940291
0.836467	0.760303
0.809858	0.603732
0.711186	0.509827
0.609012	0.464446
0.505093	0.407011
0.403783	0.410023
0.353564	0.411516
0.332604	0.412139
0.302925	0.328288
0.251827	0.366121
0.201169	0.379732
0.181955	0.380303
0.16187	0.368795
0.140477	0.345222
0.11951	0.382159
0.099421	0.394861
0.079342	0.347039
