Adsorption isotherm of Nitrogen on TPT-COF-V
DOI: 10.1002/anie.202010829
Article source: Figure S10a
Adsorbate Nitrogen: InChIKey IJGRMHOSHXDMSA-UHFFFAOYSA-N
Kind: experiment
Temperature: 77 K
Tabular data in the source: 0
pressure (bar)	uptake (cm3(STP)/g)
0.002868	-0.001461
0.004187	0.091811
0.007958	0.243385
0.013097	0.327683
0.020048	0.445693
0.030333	0.488072
0.040012	0.551469
0.049692	0.598037
0.059977	0.632001
0.069368	0.489233
0.088124	0.565522
0.125035	0.650766
0.182217	0.778685
0.233652	0.872775
0.284484	0.950019
0.334407	1.02724
0.405207	1.13873
0.458152	1.28335
0.506103	1.42783
0.557082	1.55556
0.606397	1.68325
0.657977	1.86149
0.707738	2.09857
0.758553	2.39459
0.808298	2.85046
0.829914	3.12037
0.859838	3.57985
0.884617	4.05601
0.911509	4.60375
0.919669	4.73863
0.928127	4.94083
0.936588	5.10937
0.942325	5.27783
0.950786	5.43796
0.958342	5.5644
0.965891	5.7834
0.972231	5.98554
0.97948	6.17087
0.98521	6.44872
0.990941	6.69291
0.99546	6.97073
1.00028	7.3327
1.00477	7.91343
1.00477	7.90502
0.98938	7.36603
0.97672	6.68408
0.964045	6.20828
0.947737	5.76603
0.931115	5.46682
0.912379	5.12548
0.884864	4.82173
0.861882	4.61069
0.835882	4.28175
0.811995	4.0286
0.76065	3.52433
0.707982	2.98186
0.657817	2.53544
0.607649	2.12391
0.556215	1.86065
0.506662	1.63235
0.455543	1.35166
0.405665	1.26293
0.354218	1.1916
0.302769	1.13773
0.251949	1.06642
0.202384	0.995155
0.1798	0.924689
0.161608	0.871803
0.14153	0.853757
0.120825	0.835693
0.099496	0.765265
0.089016	0.782643
0.079938	0.782373
0.069408	0.78206
0.058516	0.751444
0.049077	0.730968
0.037824	0.670049
0.029111	0.649594
0.01822	0.608881
0.00879	0.457139
0.004442	0.33584
