Adsorption isotherm of Nitrogen on TPT-COF-3
DOI: 10.1002/anie.202010829
Article source: Figure S10a
Adsorbate Nitrogen: InChIKey IJGRMHOSHXDMSA-UHFFFAOYSA-N
Kind: experiment
Temperature: 77 K
Tabular data in the source: 0
pressure (bar)	uptake (cm3(STP)/g)
0.001869	0.759855
0.009484	0.911543
0.020002	1.07342
0.029434	1.20496
0.039958	1.29615
0.049395	1.34692
0.060286	1.38763
0.06936	1.44849
0.079887	1.48919
0.08969	1.50968
0.101305	1.58071
0.120184	1.62166
0.141241	1.67277
0.160844	1.75413
0.181719	1.81534
0.201869	1.85633
0.251969	1.99918
0.302434	2.12185
0.353623	2.26474
0.403543	2.3874
0.453821	2.58074
0.505741	2.67821
0.556201	2.86652
0.607023	3.06998
0.658022	3.33403
0.707932	3.59805
0.758378	3.98325
0.808811	4.54011
0.82985	4.84366
0.85977	5.35952
0.884964	5.95602
0.908873	6.73423
0.916478	7.02728
0.920275	7.23944
0.924433	7.4819
0.930228	7.69412
0.936018	7.96692
0.940352	8.29017
0.946139	8.61346
0.950472	8.9468
0.95625	9.39126
0.960941	9.7953
0.966353	10.2801
0.970674	10.7851
0.976078	11.3709
0.980754	11.9971
0.986503	12.8354
0.991166	13.6332
0.996532	14.7542
1.00153	15.8903
1.00505	17.5009
1.00541	17.4808
0.994224	16.5414
0.984488	15.602
0.97585	14.5314
0.971527	14.0567
0.964675	13.3951
0.961435	13.0063
0.954577	12.4406
0.950975	12.0366
0.94556	11.5922
0.941235	11.1478
0.935094	10.7033
0.931852	10.3397
0.926796	9.95584
0.920284	9.63253
0.915951	9.28909
0.909805	8.9153
0.891726	7.85453
0.858058	6.43989
0.837044	5.78293
0.811304	5.22176
0.759072	4.41746
0.709	3.8909
0.659823	3.54108
0.607374	3.2366
0.555462	3.03815
0.505368	2.81452
0.454185	2.57571
0.403361	2.39749
0.352897	2.26472
0.303522	2.13198
0.253784	2.00934
0.200053	1.85627
0.181175	1.79513
0.160116	1.77431
0.14015	1.70303
0.119093	1.64182
