Adsorption isotherm of Nitrogen on TPT-COF-4
DOI: 10.1002/anie.202010829
Article source: Figure S10a
Adsorbate Nitrogen: InChIKey IJGRMHOSHXDMSA-UHFFFAOYSA-N
Kind: experiment
Temperature: 77 K
Tabular data in the source: 0
pressure (bar)	uptake (cm3(STP)/g)
0.009904	0.113859
0.020065	0.205038
0.031317	0.276055
0.040396	0.256131
0.051288	0.27665
0.060729	0.287028
0.070897	0.267136
0.079611	0.28759
0.091593	0.298044
0.10176	0.298346
0.12173	0.324184
0.140246	0.370173
0.161668	0.391006
0.182365	0.406768
0.201974	0.407351
0.252812	0.38362
0.302195	0.405285
0.332331	0.436474
0.353756	0.427014
0.404595	0.393186
0.454704	0.41992
0.505902	0.446687
0.556374	0.473433
0.606665	0.485027
0.658043	0.526945
0.708153	0.538534
0.759347	0.620836
0.810907	0.66276
0.829063	0.653203
0.861013	0.724836
0.887152	0.806393
0.912202	0.867723
0.921275	0.948773
0.929256	1.04998
0.937238	1.1411
0.945583	1.23222
0.953564	1.33344
0.961544	1.46494
0.970974	1.61163
0.977858	1.81884
0.984375	2.09166
0.989805	2.31396
0.995593	2.62716
0.998474	2.95036
1.00208	3.2332
1.00677	3.7584
1.00495	3.79874
0.9901	3.26313
0.975622	2.61647
0.963314	2.09103
0.947367	1.67656
0.93105	1.35296
0.908914	1.15035
0.886412	0.988125
0.859915	0.835875
0.835591	0.774567
0.809996	0.703123
0.759709	0.630945
0.709242	0.548664
0.656955	0.506718
0.607207	0.515335
0.556917	0.493644
0.506263	0.471942
0.455067	0.419931
0.402777	0.428473
0.331971	0.396073
0.28077	0.414745
0.252083	0.423988
0.202334	0.442703
0.141335	0.370206
0.09994	0.358877
0.080152	0.338093
