Adsorption isotherm of Hydrogen on UPR-2
DOI: 10.1021/Cg400382k
Adsorbate Hydrogen: InChIKey UFHFLCQGNIYNRP-UHFFFAOYSA-N
Temperature: 298 K
Tabular data in the source: 0
pressure (bar)	uptake (mmol/g)
0.0201482	0.0224148
0.147692	0.0136286
0.551567	0.0231193
0.808112	0.0234594
1.06466	0.0237995
1.6144	0.0245283
2.16379	0.020779
2.43901	0.0256215
2.98803	0.0173941
3.5572	0.0315815
3.77746	0.0363511
3.99662	0.0276865
4.58374	0.03742
4.804	0.0421897
5.42632	0.0340594
5.6484	0.0612195
6.27109	0.0575674
6.45433	0.0578103
7.07846	0.0720706
7.30091	0.103709
7.88585	0.0865738
8.10793	0.113734
8.67637	0.118965
8.86253	0.155033
9.13594	0.137485
9.63253	0.160531
