Adsorption isotherm of Nitrogen on UPR-2
DOI: 10.1021/Cg400382k
Adsorbate Nitrogen: InChIKey IJGRMHOSHXDMSA-UHFFFAOYSA-N
Temperature: 298 K
Tabular data in the source: 0
pressure (bar)	uptake (mmol/g)
0.108901	-0.00873164
0.218717	0.000584273
0.619469	-0.00285645
0.874866	0.00233709
1.11181	0.00297006
1.67683	0.00447943
2.20562	0.0104033
2.40611	0.0109389
3.00758	0.0125456
3.53615	0.0139576
4.06563	0.0334172
5.43283	0.0415808
6.4911	0.0669642
7.27506	0.0735697
7.87791	0.102248
8.73409	0.0955125
8.88059	0.109438
9.17198	0.105705
9.60988	0.115897
