Adsorption isotherm of Carbon Dioxide on UPR-2
DOI: 10.1021/Cg400382k
Adsorbate Carbon Dioxide: InChIKey CURLTUGMZLYLDI-UHFFFAOYSA-N
Temperature: 298 K
Tabular data in the source: 0
pressure (bar)	uptake (mmol/g)
0.221914	0.0637507
0.573469	0.168449
0.867831	0.223371
1.10751	0.278147
1.65774	0.347286
2.18949	0.411864
2.44695	0.457665
2.97826	0.513219
3.50979	0.573286
3.8037	0.619184
4.06138	0.669496
4.59245	0.720539
4.88659	0.770949
5.38144	0.826406
5.63912	0.876718
6.20734	0.941394
6.48325	0.991755
7.01501	1.05633
7.29092	1.10669
7.82245	1.16676
8.08082	1.23061
8.64835	1.28175
8.90649	1.34109
9.14617	1.39586
9.55035	1.4601
