Adsorption isotherm of Nitrogen on UPR-1
DOI: 10.1021/Cg400382k
Adsorbate Nitrogen: InChIKey IJGRMHOSHXDMSA-UHFFFAOYSA-N
Temperature: 298 K
Tabular data in the source: 0
pressure (bar)	uptake (mmol/g)
0.152855	-0.00461148
0.547601	0.00671458
0.832161	0.00756896
1.11672	0.00842335
1.64206	0.0100007
2.21118	0.0117094
2.40856	0.0173725
3.02145	0.0192127
3.56943	0.0309988
3.83247	0.036859
4.05136	0.0375162
4.64237	0.0392907
4.83974	0.0449537
5.45264	0.0467939
5.67227	0.0575942
6.24214	0.0694461
6.41762	0.0750434
7.86416	0.104739
8.08342	0.110467
8.71784	0.107302
8.87143	0.112833
9.13447	0.118694
9.59489	0.130217
