Adsorption isotherm of Carbon Dioxide on UPR-1
DOI: 10.1021/Cg400382k
Adsorbate Carbon Dioxide: InChIKey CURLTUGMZLYLDI-UHFFFAOYSA-N
Temperature: 298 K
Tabular data in the source: 0
pressure (bar)	uptake (mmol/g)
0.178813	0.0512411
0.55611	0.12336
0.84363	0.164786
1.10927	0.206147
1.66093	0.268649
2.16846	0.325947
2.43482	0.377451
2.96387	0.429744
3.49328	0.487108
3.78154	0.538678
4.04754	0.58511
4.57806	0.657689
4.86632	0.709259
5.41873	0.781903
5.66395	0.843485
6.1941	0.910992
6.46158	0.977711
7.01473	1.0605
7.28184	1.12215
7.83536	1.21
8.10321	1.28179
8.63411	1.35944
8.92532	1.45159
9.17128	1.52331
9.57158	1.61071
