Adsorption isotherm of Hydrogen on UPR-1
DOI: 10.1021/Cg400382k
Adsorbate Hydrogen: InChIKey UFHFLCQGNIYNRP-UHFFFAOYSA-N
Temperature: 298 K
Tabular data in the source: 0
pressure (bar)	uptake (mmol/g)
0.131705	0.00546586
0.547601	0.00671458
0.832161	0.00756896
1.0952	0.0134292
1.6417	0.00492914
2.21155	0.016781
2.4527	0.0225754
2.99956	0.019147
3.52528	0.0257958
3.72229	0.0263873
4.0291	0.0323789
4.642	0.0342192
4.8839	0.0501567
5.43112	0.0517997
5.65039	0.0575285
6.26328	0.0593687
6.46139	0.0751748
7.05278	0.0820208
7.27241	0.0928211
7.82001	0.0995357
8.03964	0.110336
8.69742	0.127522
8.87402	0.148334
9.13744	0.159266
