Adsorption isotherm of Carbon Dioxide on HAT-NTBA-COF
DOI: 10.1039/c6cc09906h
Article source: Figure S11
Adsorbate Carbon Dioxide: InChIKey CURLTUGMZLYLDI-UHFFFAOYSA-N
Kind: experiment
Temperature: 298 K
Tabular data in the source: 0
pressure (bar)	uptake (cm3(STP)/g)
0.026013	1.29728
0.073978	3.16962
0.121944	5.01007
0.186085	7.32549
0.374393	12.8893
0.44081	14.714
0.525863	16.7225
0.576353	17.9539
0.626843	19.0927
0.677332	20.1668
0.778312	22.2963
0.828802	23.3148
0.879292	24.3147
0.980272	26.2313
1.02319	27.0633
0.304892	10.9319
0.056883	2.42003
0.040956	1.91933
0.011377	0.417246
0.25711	9.42976
