Adsorption isotherm of Carbon Dioxide on HAT-NTBCA-COF
DOI: 10.1039/c6cc09906h
Article source: Figure S11
Adsorbate Carbon Dioxide: InChIKey CURLTUGMZLYLDI-UHFFFAOYSA-N
Kind: experiment
Temperature: 273 K
Tabular data in the source: 0
pressure (bar)	uptake (cm3(STP)/g)
0.029369	2.08514
0.074661	4.58717
0.124986	7.08371
0.193707	9.73354
0.249065	11.7609
0.304422	13.6201
0.35978	15.3507
0.457132	18.0511
0.51249	19.4257
0.567847	20.83
0.623205	22.2047
0.678563	23.4211
0.775915	25.5268
0.831272	26.7432
0.899993	28.1779
0.955351	29.3844
1.01071	30.4525
0.057906	3.75516
0.044543	2.98487
0.017817	1.25172
0.010022	0.577717
