Adsorption isotherm of Nitrogen on HAT-NTBCA-COF
DOI: 10.1039/c6cc09906h
Article source: Figure 3c
Adsorbate Nitrogen: InChIKey IJGRMHOSHXDMSA-UHFFFAOYSA-N
Kind: experiment
Temperature: 77 K
Tabular data in the source: 0
pressure (bar)	uptake (cm3(STP)/g)
0.00073	12.5655
8.6e-05	2.68029
0.002104	38.6615
0.001467	27.0843
0.005701	98.2768
0.002848	50.8128
0.004919	85.9456
0.004228	75.6045
0.004228	67.472
0.004228	59.3395
0.013407	109.588
0.038109	118.707
0.084076	124.885
0.119141	126.958
0.159771	128.595
0.199967	129.234
0.236955	129.457
0.270096	129.784
0.303237	129.981
0.336379	129.919
0.36952	130.166
0.402661	130.135
0.468943	129.365
0.502084	129.273
0.535225	128.934
0.568366	128.749
0.601507	128.626
0.634648	128.256
0.667789	128.533
0.694517	128.903
0.734071	129.211
0.77619	129.457
0.800353	130.905
0.833494	132.692
0.899458	139.692
0.932917	147.632
0.973653	164.251
1.00571	203.746
0.000641	20.2575
0.002565	32.618
0.882425	136.996
0.055152	121.545
0.023087	115.021
0.007696	105.064
0.00513	92.5322
0.004489	81.3734
0.002565	45.1502
0.125099	152.055
0.163764	152.108
0.202429	151.817
0.241093	150.972
0.279758	150.127
0.318422	149.23
0.357087	148.385
0.395751	147.487
0.434416	147.707
0.491037	152.609
0.525854	152.649
0.564518	151.672
0.603183	150.325
0.641847	149.48
0.672175	148.939
0.710839	148.675
0.761689	148.886
0.800353	150.55
0.839018	155.012
0.883454	162.432
0.920738	170.995
0.960535	186.662
1.00749	202.041
0.457886	148.326
0.814448	152.103
