Adsorption isotherm of Carbon Dioxide on HAT-NTBA-COF
DOI: 10.1039/c6cc09906h
Article source: Figure S11
Adsorbate Carbon Dioxide: InChIKey CURLTUGMZLYLDI-UHFFFAOYSA-N
Kind: experiment
Temperature: 273 K
Tabular data in the source: 0
pressure (bar)	uptake (cm3(STP)/g)
0.026238	3.3538
0.067236	7.22069
0.110796	10.8619
0.203043	17.1027
0.249166	19.8679
0.295289	22.3258
0.385613	26.5983
0.433658	28.7586
0.525263	32.3446
0.572027	34.0969
0.616228	35.8011
0.67196	37.6877
0.769697	40.7327
0.81582	42.214
0.900745	44.6335
0.952725	46.0654
1.03582	48.1578
0.050808	5.919
0.036952	4.51713
0.013857	2.02492
0.002309	0.778816
