Adsorption isotherm of Nitrogen on HAT-NTBA-COF
DOI: 10.1039/c6cc09906h
Article source: Figure 3a
Adsorbate Nitrogen: InChIKey IJGRMHOSHXDMSA-UHFFFAOYSA-N
Kind: experiment
Temperature: 77 K
Tabular data in the source: 0
pressure (bar)	uptake (cm3(STP)/g)
0.003769	92.5574
0.003769	24.4047
0.005141	66.821
0.005141	47.9195
0.01676	139.87
0.005141	116.986
0.045463	157.59
0.079483	166.327
0.109114	170.6
0.139294	175.034
0.16801	177.99
0.198556	181.081
0.228187	184.547
0.259464	188.153
0.292387	190.938
0.324701	192.502
0.353021	196.076
0.380792	198.593
0.413106	199.807
0.441152	201.818
0.473465	204.864
0.511876	207.796
0.544189	210.418
0.57315	213.464
0.60214	216.232
0.632046	219.457
0.662225	222.923
0.692954	226.192
0.725877	230.37
0.7588	234.987
0.790077	240.58
0.826085	248.61
0.8706	264.584
0.906955	283.605
0.931647	305.194
0.973487	355.192
1.00518	433.831
0.006232	127.877
0.004958	106.16
0.003684	79.951
0.004321	56.7369
0.004321	36.5182
0.001773	12.5554
0.144232	187.505
0.174412	189.986
0.204592	192.404
0.234771	194.603
0.264951	196.948
0.295131	198.707
0.32531	200.613
0.354667	202.445
0.38567	204.571
0.415849	206.403
0.446029	209.482
0.476209	215.492
0.506388	222.234
0.536568	225.826
0.566748	228.517
0.596927	231.082
0.627107	233.522
0.657287	237.406
0.687466	240.558
0.717646	246.568
0.747826	253.677
0.838365	289.42
0.865801	306.06
0.890493	327.44
1.00435	439.098
0.796216	268.659
0.930003	365.259
0.964406	404.199
