Adsorption isotherm of Carbon Dioxide on HAT-NTBCA-COF
DOI: 10.1039/c6cc09906h
Article source: Figure S12
Adsorbate Carbon Dioxide: InChIKey CURLTUGMZLYLDI-UHFFFAOYSA-N
Kind: experiment
Temperature: 298 K
Tabular data in the source: 0
pressure (bar)	uptake (cm3(STP)/g)
0.032724	0.952242
0.129109	3.30286
0.191293	4.75217
0.2458	5.89955
0.300308	7.04076
0.37236	8.29266
0.453963	9.79688
0.51834	10.9209
0.572848	11.877
0.627355	12.79
0.681863	13.6166
0.78101	15.065
0.831132	15.813
0.899895	16.8243
0.954402	17.6201
1.03864	18.6934
0.001096	0.09009
0.016447	0.48048
0.044956	1.29129
0.058114	1.68168
