Adsorption isotherm of Nitrogen on CuBTC
DOI: 10.1007/s10934-014-9891-7
Article source: Figure 3
Adsorbate Nitrogen: InChIKey IJGRMHOSHXDMSA-UHFFFAOYSA-N
Kind: experiment
Temperature: 77 K
Tabular data in the source: 0
pressure (bar)	uptake (cm3(STP)/g)
0	0
0.000732	91.6031
0.004209	126.718
0.0051	238.168
0.005246	256.489
0.008503	264.122
0.014933	268.702
0.027743	271.756
0.056559	277.863
0.07897	282.443
0.101356	283.969
0.12694	285.496
0.152536	288.55
0.181303	288.55
0.206885	290.076
0.22926	290.076
0.254831	290.076
0.280415	291.603
0.302789	291.603
0.318784	293.13
0.357139	293.13
0.382723	294.656
0.408294	294.656
0.433865	294.656
0.456239	294.656
0.478602	293.13
0.52656	294.656
0.558536	296.183
0.609678	296.183
0.632052	296.183
0.657624	296.183
0.683206	297.71
0.711985	299.237
0.759931	299.237
0.788711	300.763
0.83346	300.763
0.862227	300.763
0.884614	302.29
0.910197	303.817
0.935769	303.817
0.961339	303.817
0.990156	309.924
1.00947	326.718
