Adsorption isotherm of Nitrogen on ABIL@HKUST-1/DMF
DOI: 10.1007/s10934-014-9891-7
Article source: Figure 3
Adsorbate Nitrogen: InChIKey IJGRMHOSHXDMSA-UHFFFAOYSA-N
Kind: experiment
Temperature: 77 K
Tabular data in the source: 0
pressure (bar)	uptake (cm3(STP)/g)
0	0
0.000178	59.5447
0.000237	35.1181
0.002836	117.553
0.003462	143.506
0.004088	169.459
0.004788	198.466
0.007894	193.881
0.024603	219.81
0.056916	225.868
0.101985	227.327
0.159882	227.24
0.204914	227.172
0.259632	228.616
0.30788	228.544
0.333613	228.505
0.359345	228.466
0.41081	228.389
0.436543	228.35
0.462275	228.311
0.48479	228.277
0.510559	229.765
0.590937	228.117
0.687433	227.972
0.790326	226.29
0.922204	226.091
0.944757	227.584
0.970526	229.072
0.996295	230.56
1.01851	351.137
