Adsorption isotherm of Nitrogen on ABIL@HKUST-1/H2O
DOI: 10.1007/s10934-014-9891-7
Article source: Figure 3
Adsorbate Nitrogen: InChIKey IJGRMHOSHXDMSA-UHFFFAOYSA-N
Kind: experiment
Temperature: 77 K
Tabular data in the source: 0
pressure (bar)	uptake (cm3(STP)/g)
0	0
0.022518	9.09167
0.048182	10.5741
0.099485	10.4971
0.153995	10.4152
0.227767	13.3463
0.304723	13.2308
0.356013	11.6329
0.432968	11.5174
0.484296	14.4822
0.529186	14.4148
0.56125	14.3667
0.583696	14.333
0.612553	14.2897
0.631793	14.2608
0.660662	15.7384
0.686314	15.6999
0.708796	20.2289
0.711954	14.1405
0.73763	17.1438
0.737678	23.2273
0.760086	18.631
0.760123	23.1936
0.785751	20.1133
0.789018	27.713
0.8115	32.242
0.814657	26.1536
0.833933	30.6874
0.840419	39.8032
0.856525	48.9045
0.859633	36.7325
0.888796	74.7115
0.891795	48.8515
0.911497	106.617
0.914398	68.5894
0.93743	141.559
0.940343	105.052
0.963178	153.687
0.966713	194.747
0.98638	247.949
0.996316	287.478
