Adsorption isotherm of Nitrogen on ABIL@HKUST-1/Ethanol
DOI: 10.1007/s10934-014-9891-7
Article source: Figure 3
Adsorbate Nitrogen: InChIKey IJGRMHOSHXDMSA-UHFFFAOYSA-N
Kind: experiment
Temperature: 77 K
Tabular data in the source: 0
pressure (bar)	uptake (cm3(STP)/g)
0	0
0.003488	18.2405
0.00378	36.4906
0.003998	50.1781
0.007438	65.3769
0.029981	75.9556
0.049207	78.9397
0.074826	81.9046
0.106787	81.8087
0.132358	81.7319
0.154756	83.1856
0.199527	84.5721
0.231513	85.997
0.260304	87.4315
0.276261	85.8627
0.308271	88.8084
0.33062	87.2204
0.356214	88.6645
0.400937	87.0093
0.400986	90.051
0.432972	91.4759
0.452101	88.3766
0.45215	91.4183
0.477841	98.9457
0.484063	88.2807
0.509997	111.016
0.531982	86.6159
0.535592	112.461
0.557965	112.393
0.563993	89.5616
0.586731	112.307
0.60874	89.4273
0.609128	113.761
0.634699	113.684
0.660292	115.128
0.663076	89.2642
0.685839	113.53
0.707847	90.6507
0.708212	113.463
0.736637	92.0852
0.736977	113.377
0.75901	92.018
0.762596	116.342
0.800951	116.227
0.806979	93.3949
0.832597	96.3598
0.832888	114.61
0.858191	97.8039
0.861679	116.044
0.884053	115.977
0.887005	100.759
0.909427	103.734
0.909622	115.9
0.935046	106.699
0.938412	117.335
0.960786	117.268
0.967081	111.165
0.983184	118.721
0.992724	115.651
1.01212	129.281
