Adsorption isotherm of Hydrogen on K-PAF-1-600
DOI: 10.1038/Srep02420
Adsorbate Hydrogen: InChIKey UFHFLCQGNIYNRP-UHFFFAOYSA-N
Temperature: 77 K
Tabular data in the source: 0
pressure (bar)	uptake (cm3(STP)/g)
0.00984391	15.2174
0.0239284	52.9638
0.0408298	80.0061
0.0605481	101.415
0.0844918	122.823
0.105619	139.724
0.135196	158.879
0.17745	180.851
0.245055	205.077
0.311252	223.105
0.371816	238.879
0.463365	255.217
0.595759	276.062
0.683083	286.203
0.745055	294.091
0.816886	303.668
0.890126	310.429
0.926745	313.246
