Adsorption isotherm of Methane on K-PAF-1-600
DOI: 10.1038/Srep02420
Adsorbate Methane: InChIKey VNWKTOKETHGBQD-UHFFFAOYSA-N
Temperature: 273 K
Tabular data in the source: 0
pressure (bar)	uptake (cm3(STP)/g)
0.00280166	1.43753
0.0422383	3.97275
0.112661	9.12768
0.170407	12.9305
0.229562	16.5643
0.290126	20.1136
0.346464	23.4094
0.402802	26.5361
0.463365	29.5784
0.530971	32.7051
0.590126	35.5784
0.653506	38.1981
0.712661	40.7333
0.773224	43.522
0.835196	46.1418
0.894351	48.677
0.960548	50.9587
