Adsorption isotherm of Hydrogen on K-PAF-1-600
DOI: 10.1038/Srep02420
Adsorbate Hydrogen: InChIKey UFHFLCQGNIYNRP-UHFFFAOYSA-N
Temperature: 77 K
Tabular data in the source: 0
pressure (bar)	uptake (wt%)
1.33727	2.08463
2.53445	2.88463
4.50628	3.68463
6.83022	3.94378
7.60487	4.19167
8.87248	4.48463
10.633	4.73252
12.3936	4.90153
16.4077	5.14942
20.3514	5.34097
24.3654	5.50998
28.0978	5.62266
32.1119	5.75787
36.126	5.84801
40.4922	5.85928
43.9429	5.83674
47.0415	5.84801
48.7316	5.85928
