Adsorption isotherm of Nitrogen on PAF-1
DOI: 10.1038/Srep02420
Adsorbate Nitrogen: InChIKey IJGRMHOSHXDMSA-UHFFFAOYSA-N
Temperature: 77 K
Tabular data in the source: 0
pressure (bar)	uptake (cm3(STP)/g)
0.0208866	1.79114
0.0223168	239.195
0.0266072	519.503
0.0323278	685.399
0.045199	851.296
0.0709416	1011.47
0.123857	1174.51
0.173912	1248.88
0.241129	1314.66
0.315496	1357.57
0.408455	1409.05
0.562911	1466.26
0.718796	1523.46
0.821767	1554.93
0.904715	1597.83
0.960491	1663.62
0.980513	1755.15
0.987663	1809.49
