Adsorption isotherm of Carbon Dioxide on K-PAF-1-500
DOI: 10.1038/Srep02420
Adsorbate Carbon Dioxide: InChIKey CURLTUGMZLYLDI-UHFFFAOYSA-N
Temperature: 273 K
Tabular data in the source: 0
pressure (bar)	uptake (cm3(STP)/g)
0.0239284	7.35486
0.115478	27.8901
0.161957	32.1999
0.283083	41.8337
0.352097	46.3971
0.421112	49.9464
0.492943	54.0027
0.560548	56.7915
0.628154	59.5802
0.705619	62.6225
0.781675	65.4112
0.847872	67.4394
0.926745	69.9746
