Adsorption isotherm of Nitrogen on K-PAF-1-750
DOI: 10.1038/Srep02420
Adsorbate Nitrogen: InChIKey IJGRMHOSHXDMSA-UHFFFAOYSA-N
Temperature: 77 K
Tabular data in the source: 0
pressure (bar)	uptake (cm3(STP)/g)
0.0294675	456.577
0.0637909	568.128
0.119566	673.958
0.201085	768.348
0.233978	791.23
0.314066	822.693
0.35411	831.274
0.445639	848.436
0.489974	854.156
0.582933	865.598
0.627267	874.178
0.718796	882.759
0.768851	894.2
0.813186	899.921
0.85609	905.642
0.896134	914.222
0.929027	939.965
0.95477	982.869
0.971932	1071.54
