Adsorption isotherm of Carbon Dioxide on PAF-1
DOI: 10.1038/Srep02420
Adsorbate Carbon Dioxide: InChIKey CURLTUGMZLYLDI-UHFFFAOYSA-N
Temperature: 273 K
Tabular data in the source: 0
pressure (bar)	uptake (cm3(STP)/g)
0.0281538	1.27035
0.0873087	4.3126
0.161957	7.8619
0.22252	10.3971
0.325337	14.4534
0.429562	19.5239
0.487309	21.8056
0.54083	24.3408
0.5859	26.1154
0.645055	28.3971
0.757731	33.7211
0.860548	38.2844
0.911252	40.8196
0.974633	44.1154
