Adsorption isotherm of Methane on PAF-1
DOI: 10.1038/Srep02420
Adsorbate Methane: InChIKey VNWKTOKETHGBQD-UHFFFAOYSA-N
Temperature: 298 K
Tabular data in the source: 0
pressure (bar)	uptake (mg/g)
0.393833	1.76437
1.72482	13.3841
2.95721	24.2996
4.73186	37.3278
7.88679	57.0461
11.091	75.0038
14.4924	92.9616
18.8797	112.328
22.9713	128.173
25.2389	135.215
27.5558	141.905
31.1051	161.976
33.8164	172.187
36.7741	182.75
