Adsorption isotherm of Hydrogen on PAF-1
DOI: 10.1038/Srep02420
Adsorbate Hydrogen: InChIKey UFHFLCQGNIYNRP-UHFFFAOYSA-N
Temperature: 77 K
Tabular data in the source: 0
pressure (bar)	uptake (cm3(STP)/g)
0.0309707	2.823
0.0760411	18.0343
0.123928	31.5554
0.168999	45.6399
0.216886	56.9075
0.273224	69.8652
0.321112	79.4427
0.376041	91.2737
0.450689	103.668
0.561957	123.95
0.635196	135.217
0.691534	144.795
0.756323	153.809
0.818295	161.696
0.873224	168.457
0.925337	175.217
