Adsorption isotherm of Methane on K-PAF-1-500
DOI: 10.1038/Srep02420
Adsorbate Methane: InChIKey VNWKTOKETHGBQD-UHFFFAOYSA-N
Temperature: 298 K
Tabular data in the source: 0
pressure (bar)	uptake (mg/g)
1.57693	23.2432
3.30228	33.1024
5.422	42.6094
7.44313	49.6517
9.51355	53.5249
12.8657	60.9193
15.1333	66.9052
18.929	71.4827
21.0488	77.8207
23.415	80.2855
27.2107	84.863
29.4783	86.6235
31.3516	89.0883
33.3234	91.201
35.4431	92.6094
