Adsorption isotherm of Carbon Dioxide on K-PAF-1-500
DOI: 10.1038/Srep02420
Adsorbate Carbon Dioxide: InChIKey CURLTUGMZLYLDI-UHFFFAOYSA-N
Temperature: 298 K
Tabular data in the source: 0
pressure (bar)	uptake (mg/g)
1.01347	86.6426
1.97122	164.812
3.49235	221.854
5.29517	245.093
8.22474	287.347
10.3092	325.375
15.098	363.403
17.9149	378.192
20.1121	392.981
25.6332	407.769
27.8867	418.333
30.1966	422.558
32.7318	428.896
35.436	439.459
37.9712	450.023
40.5628	460.586
