Adsorption isotherm of Methane on K-PAF-1-500
DOI: 10.1038/Srep02420
Adsorbate Methane: InChIKey VNWKTOKETHGBQD-UHFFFAOYSA-N
Temperature: 273 K
Tabular data in the source: 0
pressure (bar)	uptake (cm3(STP)/g)
0.0492805	2.62063
0.0859002	4.98683
0.123928	6.25444
0.198576	8.78965
0.35914	13.353
0.443647	15.3812
0.599985	18.677
0.684492	20.1981
0.847872	22.9868
0.933788	23.7474
