Adsorption isotherm of Nitrogen on K-PAF-1-600
DOI: 10.1038/Srep02420
Adsorbate Nitrogen: InChIKey IJGRMHOSHXDMSA-UHFFFAOYSA-N
Temperature: 77 K
Tabular data in the source: 0
pressure (bar)	uptake (cm3(STP)/g)
0.0323278	433.694
0.0537799	513.782
0.105265	568.128
0.168191	593.87
0.229687	605.311
0.288323	613.892
0.339808	622.473
0.395584	631.054
0.45279	636.775
0.508565	645.355
0.575782	653.936
0.637278	656.797
0.690194	665.378
0.744539	673.958
0.800315	679.679
0.85609	693.98
0.904715	708.282
0.936178	731.164
0.961921	762.627
