Adsorption isotherm of Carbon Dioxide on K-PAF-1-600
DOI: 10.1038/Srep02420
Adsorbate Carbon Dioxide: InChIKey CURLTUGMZLYLDI-UHFFFAOYSA-N
Temperature: 273 K
Tabular data in the source: 0
pressure (bar)	uptake (cm3(STP)/g)
0.00421011	6.84781
0.0422383	17.4957
0.078858	28.3971
0.112661	37.2704
0.142238	44.876
0.17745	53.2422
0.245055	66.6788
0.315478	79.1013
0.407027	92.538
0.488717	104.2
0.591534	117.383
0.687309	128.538
0.780266	138.679
0.838013	144.763
0.880266	149.327
0.933788	154.397
