Adsorption isotherm of Hydrogen on K-PAF-1-750
DOI: 10.1038/Srep02420
Adsorbate Hydrogen: InChIKey UFHFLCQGNIYNRP-UHFFFAOYSA-N
Temperature: 77 K
Tabular data in the source: 0
pressure (bar)	uptake (cm3(STP)/g)
0.0197031	5.6399
0.0366045	45.6399
0.0661819	80.5695
0.111252	118.879
0.160548	148.738
0.209844	170.71
0.278858	197.753
0.354914	223.668
0.460548	251.274
0.576041	276.062
0.684492	296.908
0.802802	314.372
0.894351	327.33
0.952097	335.217
