Adsorption isotherm of Carbon Dioxide on PAF-1
DOI: 10.1038/Srep02420
Adsorbate Carbon Dioxide: InChIKey CURLTUGMZLYLDI-UHFFFAOYSA-N
Temperature: 298 K
Tabular data in the source: 0
pressure (bar)	uptake (mg/g)
2.42193	69.7412
4.39376	169.037
6.36559	297.91
8.61911	435.234
10.4219	528.192
12.2247	644.389
14.929	756.361
17.2952	838.755
18.3092	874.671
20.1684	944.389
22.8726	1024.67
25.8022	1119.74
30.3656	1195.8
34.0276	1267.63
36.0557	1282.42
38.1402	1297.21
40.1121	1305.66
