Adsorption isotherm of Nitrogen on K-PAF-1-500
DOI: 10.1038/Srep02420
Adsorbate Nitrogen: InChIKey IJGRMHOSHXDMSA-UHFFFAOYSA-N
Temperature: 77 K
Tabular data in the source: 0
pressure (bar)	uptake (cm3(STP)/g)
0.0280373	207.732
0.05521	239.195
0.105265	253.496
0.15389	259.217
0.215386	264.937
0.281173	270.658
0.35125	273.518
0.419897	276.379
0.488543	279.239
0.5529	287.82
0.620117	287.82
0.685903	287.82
0.75312	299.261
0.814616	304.981
0.880403	322.143
0.926167	339.305
0.9562	379.349
