Adsorption isotherm of Hydrogen on K-PAF-1-500
DOI: 10.1038/Srep02420
Adsorbate Hydrogen: InChIKey UFHFLCQGNIYNRP-UHFFFAOYSA-N
Temperature: 77 K
Tabular data in the source: 0
pressure (bar)	uptake (cm3(STP)/g)
0.0380129	34.9357
0.0675904	56.3441
0.112661	72.1188
0.157731	81.1329
0.198576	86.7667
0.2859	95.2174
0.328154	99.7244
0.371816	103.105
0.471816	109.865
0.552097	113.246
0.60421	116.626
0.653506	118.879
0.701393	120.006
0.753506	122.26
0.795759	122.823
0.854914	124.513
0.902802	126.767
