Adsorption isotherm of Carbon Dioxide on K-PAF-1-600
DOI: 10.1038/Srep02420
Adsorbate Carbon Dioxide: InChIKey CURLTUGMZLYLDI-UHFFFAOYSA-N
Temperature: 298 K
Tabular data in the source: 0
pressure (bar)	uptake (mg/g)
0.900799	99.3186
2.02756	204.952
3.54869	300.023
5.40784	388.755
7.49235	479.6
9.3515	547.206
12.2811	627.488
16.1121	722.558
20.1684	809.178
22.0839	834.53
24.6191	870.445
28.1121	923.262
30.0839	938.051
32.1684	976.079
36.1121	1022.56
38.0276	1037.35
40.2811	1058.47
