Adsorption isotherm of Carbon Dioxide on K-PAF-1-750
DOI: 10.1038/Srep02420
Adsorbate Carbon Dioxide: InChIKey CURLTUGMZLYLDI-UHFFFAOYSA-N
Temperature: 273 K
Tabular data in the source: 0
pressure (bar)	uptake (cm3(STP)/g)
0.0126608	1.77739
0.0520974	8.62246
0.107027	17.4957
0.16759	26.1154
0.22252	33.7211
0.278858	41.3267
0.370407	52.9887
0.454914	62.1154
0.546464	72.5098
0.638013	82.3971
0.729562	92.7915
0.816886	101.918
0.87745	107.496
0.939421	114.341
0.976041	117.637
