Adsorption isotherm of Carbon Dioxide on K-PAF-1-750
DOI: 10.1038/Srep02420
Adsorbate Carbon Dioxide: InChIKey CURLTUGMZLYLDI-UHFFFAOYSA-N
Temperature: 298 K
Tabular data in the source: 0
pressure (bar)	uptake (mg/g)
1.3515	181.713
2.25291	287.347
3.54869	392.981
5.40784	519.741
7.267	612.699
10.5909	722.558
14.5346	845.093
18.2529	925.375
20.2247	976.079
24.0557	1037.35
26.5909	1073.26
30.3092	1138.76
32.2247	1155.66
34.1966	1195.8
38.0276	1263.4
