Adsorption isotherm of Hydrogen on K-PAF-1-750
DOI: 10.1038/Srep02420
Adsorbate Hydrogen: InChIKey UFHFLCQGNIYNRP-UHFFFAOYSA-N
Temperature: 77 K
Tabular data in the source: 0
pressure (bar)	uptake (wt%)
0.914731	2.60294
2.53445	3.44801
4.50628	4.09026
7.04149	4.5297
10.0697	4.95787
14.3654	5.40857
18.2387	5.84801
20.4218	6.00576
24.1542	6.1297
28.4499	6.33252
32.1823	6.41139
36.3373	6.5128
40.1401	6.59167
42.8866	6.61421
46.0556	6.61421
48.6612	6.62547
