Adsorption isotherm of Hydrogen on K-PAF-1-500
DOI: 10.1038/Srep02420
Adsorbate Hydrogen: InChIKey UFHFLCQGNIYNRP-UHFFFAOYSA-N
Temperature: 77 K
Tabular data in the source: 0
pressure (bar)	uptake (wt%)
1.40769	1.19449
3.52036	1.7466
5.28093	1.98322
7.46403	2.15223
9.15417	2.38885
12.3936	2.61421
16.619	2.81702
20.4218	3.03111
24.4359	3.20012
28.1683	3.36914
31.9006	3.49308
36.2668	3.51561
40.2809	3.60576
43.0274	3.63956
45.9852	3.6959
48.4499	3.6959
