Adsorption isotherm of Methane on K-PAF-1-750
DOI: 10.1038/Srep02420
Adsorbate Methane: InChIKey VNWKTOKETHGBQD-UHFFFAOYSA-N
Temperature: 273 K
Tabular data in the source: 0
pressure (bar)	uptake (cm3(STP)/g)
0.00843546	1.015
0.0971678	6.33894
0.133788	8.28261
0.199985	12.0009
0.26759	15.3812
0.338013	18.677
0.408435	22.3108
0.474633	25.184
0.546464	28.1418
0.611252	31.015
0.683083	34.2263
0.750689	37.0995
0.823928	39.8882
0.887309	42.677
0.957731	45.2967
0.995759	46.7333
