Adsorption isotherm of Methane on K-PAF-1-750
DOI: 10.1038/Srep02420
Adsorbate Methane: InChIKey VNWKTOKETHGBQD-UHFFFAOYSA-N
Temperature: 298 K
Tabular data in the source: 0
pressure (bar)	uptake (mg/g)
0.295241	17.9616
1.18256	34.5109
2.06989	50.708
3.1051	67.6094
4.43609	83.8066
6.35862	101.06
7.54172	110.215
9.56285	115.849
10.7952	123.595
13.3093	141.201
15.9713	151.764
18.4854	163.032
20.2107	166.201
23.8586	179.581
25.8797	181.694
27.9502	187.68
30.1192	192.962
34.1614	199.652
36.084	203.877
