Adsorption isotherm of Hydrogen on PAF-1
DOI: 10.1038/Srep02420
Adsorbate Hydrogen: InChIKey UFHFLCQGNIYNRP-UHFFFAOYSA-N
Temperature: 77 K
Tabular data in the source: 0
pressure (bar)	uptake (wt%)
1.126	1.55505
2.3936	2.56914
3.52036	3.25646
5.42177	4.19167
7.18234	4.74378
10.2809	5.2959
12.2528	5.61139
16.126	6.07336
20.4218	6.53533
24.295	6.80576
28.1683	6.95223
32.3232	7.05364
36.0556	7.09871
40.4922	7.17759
42.957	7.25646
47.957	7.3128
