Adsorption isotherm of Methane on K-PAF-1-600
DOI: 10.1038/Srep02420
Adsorbate Methane: InChIKey VNWKTOKETHGBQD-UHFFFAOYSA-N
Temperature: 298 K
Tabular data in the source: 0
pressure (bar)	uptake (mg/g)
0.492424	15.8489
1.922	42.6094
3.25299	57.3982
4.38679	66.9052
5.4713	80.6376
6.45721	83.1024
8.52764	98.2432
10.6966	107.398
12.6192	116.201
16.76	134.863
18.929	144.722
21.1966	151.764
23.1685	157.046
25.1403	160.567
27.4572	165.497
29.6262	170.778
33.8164	176.764
36.922	179.229
