Adsorption isotherm of Methane on PAF-1
DOI: 10.1038/Srep02420
Adsorbate Methane: InChIKey VNWKTOKETHGBQD-UHFFFAOYSA-N
Temperature: 273 K
Tabular data in the source: 0
pressure (bar)	uptake (cm3(STP)/g)
0.0408298	0.930492
0.0873087	1.94458
0.125337	2.78965
0.170407	3.71922
0.235196	4.6488
0.298576	5.66289
0.349281	6.59246
0.408435	7.69106
0.47745	8.78965
0.523928	9.63472
0.595759	10.8178
0.65914	11.8319
0.708435	12.677
0.774633	13.9446
0.838013	14.8742
0.884492	15.8037
0.949281	16.9868
