Adsorption isotherm of Oxygen on CuBTC
DOI: 10.1002/Aic.11298
Adsorbate Oxygen: InChIKey MYMOFIZGZYHOMD-UHFFFAOYSA-N
Temperature: 295 K
Tabular data in the source: 0
pressure (bar)	uptake (mmol/g)
0.248848	0.0671148
0.354839	0.0985154
0.421659	0.109974
0.605991	0.134384
0.758065	0.158747
1.0023	0.200287
