Adsorption isotherm of Oxygen on CuBTC
DOI: 10.1002/Aic.11298
Adsorbate Oxygen: InChIKey MYMOFIZGZYHOMD-UHFFFAOYSA-N
Temperature: 295 K
Tabular data in the source: 0
pressure (bar)	uptake (mmol/g)
0.248848	0.0671148
0.352535	0.0914099
0.419355	0.101448
0.603687	0.13438
0.758065	0.157327
1	0.197443
