Adsorption isotherm of Nitrogen on CuBTC
DOI: 10.1002/Aic.11298
Adsorbate Nitrogen: InChIKey IJGRMHOSHXDMSA-UHFFFAOYSA-N
Temperature: 295 K
Tabular data in the source: 0
pressure (bar)	uptake (mmol/g)
0.126728	0.0427936
0.228111	0.078449
0.352535	0.116978
0.5	0.165483
0.64977	0.213991
0.834101	0.26681
1.0023	0.322446
