Adsorption isotherm of Nitrogen on CuBTC
DOI: 10.1002/Aic.11298
Adsorbate Nitrogen: InChIKey IJGRMHOSHXDMSA-UHFFFAOYSA-N
Temperature: 295 K
Tabular data in the source: 0
pressure (bar)	uptake (mmol/g)
0.126728	0.0541573
0.230415	0.0926568
0.354839	0.129765
0.502304	0.179691
0.64977	0.221093
0.831797	0.273909
1.00461	0.315347
