Adsorption isotherm of Nitrogen on ZnCaBTB
DOI: 10.1039/C4ce01237b
Adsorbate Nitrogen: InChIKey IJGRMHOSHXDMSA-UHFFFAOYSA-N
Temperature: 77 K
Tabular data in the source: 0
pressure (bar)	uptake (cm3(STP)/g)
-0.00510414	19.251
-0.00234135	192.317
-0.000952149	278.209
-0.000920931	275.645
-0.00078045	264.106
-0.000639969	252.567
-0.000421443	34.6171
-9.3654e-05	7.69268
0.000218526	182.05
0.000280962	176.922
0.000421443	165.383
0.000639969	147.433
0.000749232	138.459
0.000842886	130.766
0.00138921	285.892
0.00149846	76.9171
0.00167016	62.8139
0.00176381	55.1212
0.00188869	44.8643
0.00193552	241.018
0.0020916	228.197
0.00223209	216.658
0.00238818	203.837
0.00298132	155.116
0.00340276	120.499
0.00373055	293.575
0.00379299	88.4465
0.00597825	108.951
0.0060719	301.258
0.00608752	99.9759
0.0422535	329.32
0.0810888	339.423
0.112666	345.708
0.15403	348.108
0.171044	350.605
0.217262	354.268
0.256191	356.678
0.29512	359.088
0.348658	361.44
0.399762	363.802
0.450897	363.6
0.497163	363.416
0.548267	365.778
0.594531	365.595
0.648101	365.383
0.708945	367.706
0.745455	368.844
0.79172	368.661
0.842824	371.022
0.89154	369.547
0.937804	369.364
0.966963	374.377
