Adsorption isotherm of Nitrogen on CaBTB
DOI: 10.1039/C4ce01237b
Adsorbate Nitrogen: InChIKey IJGRMHOSHXDMSA-UHFFFAOYSA-N
Temperature: 77 K
Tabular data in the source: 0
pressure (bar)	uptake (cm3(STP)/g)
0.0178849	269.256
0.0446964	275.728
0.0861777	278.317
0.127659	280.906
0.174023	283.495
0.242354	286.084
0.2936	288.673
0.357058	289.968
0.4498	292.557
0.557205	292.557
0.703665	292.557
0.845227	295.146
