Adsorption isotherm of Carbon Dioxide on ZnCaBTB
DOI: 10.1039/C4ce01237b
Adsorbate Carbon Dioxide: InChIKey CURLTUGMZLYLDI-UHFFFAOYSA-N
Temperature: 298 K
Tabular data in the source: 0
pressure (bar)	uptake (mg/g)
0.0172563	0.603969
0.0910976	9.00931
0.12807	13.8108
0.158539	18.0115
0.195408	21.6154
0.24746	26.7208
0.284458	31.8217
0.330058	36.9252
0.377938	43.5263
0.427839	48.6311
0.471263	53.4345
0.532021	59.7401
0.581896	64.5455
0.640426	69.9522
0.6881	74.1581
0.73795	78.6641
0.787748	82.5712
0.839749	87.0778
0.891775	91.8838
0.945849	95.4928
1.0021	99.4018
