Adsorption isotherm of Nitrogen on ZnCaBTB
DOI: 10.1039/C4ce01237b
Adsorbate Nitrogen: InChIKey IJGRMHOSHXDMSA-UHFFFAOYSA-N
Temperature: 77 K
Tabular data in the source: 0
pressure (bar)	uptake (cm3(STP)/g)
0.00788215	308.377
0.0151579	316.109
0.0175675	321.267
0.0273158	323.835
0.0467889	332.841
0.0613957	339.273
0.0955386	344.389
0.132123	349.502
0.188235	354.589
0.229716	357.114
0.278521	359.63
0.324893	360.859
0.376146	362.081
0.420069	364.603
0.466433	367.122
0.515253	367.058
0.564065	368.283
0.612879	369.509
0.661691	370.734
0.705637	369.385
0.75934	369.314
0.805704	371.833
0.859414	370.471
0.905777	372.991
0.944827	374.229
