Adsorption isotherm of Nitrogen on CaBTB
DOI: 10.1039/C4ce01237b
Adsorbate Nitrogen: InChIKey IJGRMHOSHXDMSA-UHFFFAOYSA-N
Temperature: 77 K
Tabular data in the source: 0
pressure (bar)	uptake (cm3(STP)/g)
-0.00352768	178.069
-0.0034883	171.618
-0.00343319	162.585
-0.00339381	156.134
-0.00139374	228.389
-0.001315	215.486
-0.00126776	207.744
-0.00122839	201.292
-0.00117327	192.26
-0.0011339	185.808
-0.000897667	147.098
-0.000637816	104.517
-0.000582696	95.4846
-0.000527576	86.4523
-0.0002756	45.1617
-0.000236228	38.71
-0.000181108	29.6777
-0.000133863	21.9357
-7.87428e-05	12.9033
-2.36228e-05	3.871
0.0015906	139.353
0.0016536	129.03
0.00198432	74.8361
0.00207881	59.3521
0.00211818	52.9004
0.00341744	239.995
0.00416549	117.414
0.0131343	247.724
0.0277253	256.737
0.0593641	272.179
0.105712	277.279
0.193558	282.324
0.293616	286.062
0.432723	291.038
0.5499	289.592
0.696346	291.978
0.823271	293.1
0.91603	292.977
