Adsorption isotherm of Carbon Dioxide on CaBTB
DOI: 10.1039/C4ce01237b
Adsorbate Carbon Dioxide: InChIKey CURLTUGMZLYLDI-UHFFFAOYSA-N
Temperature: 298 K
Tabular data in the source: 0
pressure (bar)	uptake (mg/g)
-6.45282e-05	-0.598822
0.0501191	5.10483
0.10902	11.7093
0.174387	18.3157
0.224507	23.4205
0.294216	30.3276
0.344271	34.8336
0.383517	39.037
0.437979	44.4425
0.48591	49.2473
0.54465	54.3547
0.592517	58.5606
0.649038	63.0686
0.712024	67.5785
0.755451	70.5855
0.829278	75.6974
0.890108	80.2066
0.937879	83.5143
0.992179	87.4228
