Adsorption isotherm of Nitrogen on BTZ-BCA-COF
DOI: 10.1021/acsanm.1c02329
Article source: Figure 3
Adsorbate Nitrogen: InChIKey IJGRMHOSHXDMSA-UHFFFAOYSA-N
Kind: experiment
Temperature: 77 K
Tabular data in the source: 0
pressure (bar)	uptake (cm3(STP)/g)
0.000995	110.87
0.000785	84.8796
0.001367	72.3167
0.001367	58.3083
0.001381	20.1509
0.001411	8.27133
0.00091	-1.64199
0.007035	139.045
0.00091	93.9829
0.000209	30.4759
0.006244	129.982
0.007829	149.137
0.0274	165.387
0.057153	173.749
0.086906	178.15
0.116658	182.679
0.146411	186.249
0.176164	188.88
0.205916	191.511
0.235669	194.33
0.265422	196.397
0.295174	198.652
0.324927	200.625
0.35468	202.598
0.384432	204.101
0.414185	206.075
0.443938	207.766
0.47369	210.227
0.503443	213.078
0.533196	214.979
0.562948	216.295
0.592701	218.139
0.622454	220.156
0.652206	222.327
0.681959	223.852
0.711711	225.656
0.739977	226.922
0.771217	230.388
0.802457	232.018
0.831466	234.965
0.860475	239.007
0.890227	243.357
0.91998	247.604
0.949733	253.43
0.970188	258.598
0.983712	273.119
1.01296	356.691
0.99011	286.565
0.959257	266.723
0.934013	261.621
0.912977	255.952
0.886331	252.551
0.858282	251.984
0.834441	249.15
0.814807	248.016
0.781149	246.882
0.760113	245.181
0.737674	244.615
0.709626	243.481
0.681577	241.213
0.653529	240.079
0.629688	237.812
0.605846	236.678
0.583408	234.977
0.552554	233.844
0.53292	231.859
0.509079	230.442
0.482433	222.506
0.45719	216.837
0.427739	214.569
0.023841	175.454
0.053292	182.823
0.075731	187.925
0.099572	190.76
0.123413	194.161
0.152864	198.129
0.178108	198.696
0.201949	200.397
0.227192	201.531
0.252436	203.798
0.275576	205.215
0.304326	207.2
0.329569	208.9
0.356215	210.034
0.381459	211.168
0.406702	212.302
