Adsorption isotherm of Nitrogen on BTZ-TPA-COF
DOI: 10.1021/acsanm.1c02329
Article source: Figure 3
Adsorbate Nitrogen: InChIKey IJGRMHOSHXDMSA-UHFFFAOYSA-N
Kind: experiment
Temperature: 77 K
Tabular data in the source: 0
pressure (bar)	uptake (cm3(STP)/g)
0.022108	38.4345
0.047236	47.7536
0.077608	59.179
0.107981	65.4221
0.136741	68.4647
0.168106	73.561
0.197445	75.4485
0.228231	76.8746
0.258603	78.9786
0.287943	80.3762
0.317282	81.8628
0.347241	83.4956
0.376994	85.3748
0.40778	87.1078
0.436499	88.0056
0.466252	89.8222
0.496005	91.3255
0.51398	101.957
0.525757	92.1962
0.556956	94.708
0.585263	95.4848
0.615015	96.8941
0.644561	98.1156
0.674521	99.0552
0.70324	100.554
0.734026	102.25
0.763779	103.283
0.793738	104.396
0.823077	105.883
0.853037	107.23
0.884236	109.14
0.913162	111.729
0.942295	112.397
0.972667	116.768
0.995477	129.235
1.01296	143.968
0.987305	121.599
0.007012	29.7619
0	21.8254
0	14.4558
0.000701	5.38549
0.021036	54.1383
0.053292	71.9955
0.077133	76.8141
0.102377	79.6485
0.129023	80.7823
0.151462	82.1995
0.176705	84.7506
0.200546	85.8844
0.229296	86.7347
0.253137	89.0023
0.27768	90.1361
0.302222	91.2698
0.326764	92.1202
0.354813	92.6871
0.378654	93.8209
0.403898	95.5215
0.433348	96.6553
0.45719	98.0726
0.484537	99.7732
0.53292	101.757
0.556762	102.891
0.581304	103.741
0.608651	103.458
0.633194	104.875
0.660541	106.293
0.685784	107.426
0.711028	108.56
0.733467	110.261
0.76432	110.261
0.781149	111.961
0.807795	112.528
0.834441	114.796
0.858282	114.796
0.890538	115.93
0.910172	117.063
0.935416	119.331
0.956452	121.032
