Adsorption isotherm of Methanol on CuBTC
DOI: 10.1021/acsami.5b07665
Article source: Figure 2
Adsorbate Methanol: InChIKey OKKJLVBELUTLKV-UHFFFAOYSA-N
Kind: experiment
Temperature: 298 K
Tabular data in the source: 0
pressure (bar)	uptake (mmol/g)
0.000508	0.9945
0.001308	2.1028
0.002897	4.5137
0.005217	8.4232
0.007504	10.5977
0.010033	12.1516
0.014932	13.9299
0.019956	14.6615
0.029996	15.3206
0.03992	15.8049
0.049623	16.2201
0.06489	16.5522
0.084695	16.9925
0.100448	17.2976
0.119886	17.9729
0.130068	18.3253
0.140136	18.5031
