Adsorption isotherm of Acetone on Ti-BTC
DOI: 10.1021/acsami.5b07665
Article source: Figure 5
Adsorbate Acetone: InChIKey CSCPPACGZOOCGX-UHFFFAOYSA-N
Kind: experiment
Temperature: 298 K
Tabular data in the source: 0
pressure (bar)	uptake (mmol/g)
9.4e-05	1.4484
0.000154	2.252
0.000194	3.4302
0.000261	4.7355
0.000501	5.8456
0.000512	5.9612
0.000643	7.176
0.000774	7.5823
0.00103	7.9433
0.00131	8.218
0.001614	8.42
0.001917	8.5767
0.002146	8.7696
0.002955	9.117
0.003987	9.2646
0.004943	9.3554
0.005824	9.419
0.008113	9.5939
0.012263	9.7461
0.019981	9.9348
0.030012	10.0895
0.040017	10.1738
0.050122	10.2786
0.060051	10.3674
0.08006	10.4861
0.100076	10.5529
0.125133	10.6438
0.140216	10.6983
