Adsorption isotherm of Methanol on Ti-BTC
DOI: 10.1021/acsami.5b07665
Article source: Figure 5
Adsorbate Methanol: InChIKey OKKJLVBELUTLKV-UHFFFAOYSA-N
Kind: experiment
Temperature: 298 K
Tabular data in the source: 0
pressure (bar)	uptake (mmol/g)
0.001604	0.0089
0.002456	0.0178
0.00391	0.0178
0.005514	0.0533
0.006917	0.0843
0.008471	0.1465
0.010476	0.1553
0.013082	0.1731
0.015764	0.2574
0.021002	0.3595
0.030771	2.4501
0.035747	6.7865
0.040569	12.8984
0.050485	16.5957
0.055445	17.4079
0.060607	17.8961
0.070405	18.4465
0.080379	18.7261
0.090128	18.846
0.100103	18.9703
0.110103	18.988
0.119844	19.0463
0.139769	19.1358
