Adsorption isotherm of Acetone on CuBTC
DOI: 10.1021/acsami.5b07665
Article source: Figure 2
Adsorbate Acetone: InChIKey CSCPPACGZOOCGX-UHFFFAOYSA-N
Kind: experiment
Temperature: 298 K
Tabular data in the source: 0
pressure (bar)	uptake (mmol/g)
0.000554	0.6349
0.0008	1.157
0.001002	2.234
0.001297	4.5432
0.001658	5.8624
0.003888	6.8877
0.008834	7.4521
0.013294	7.7155
0.017691	7.8448
0.027055	7.9355
0.035775	8.0027
0.054115	8.1184
0.071674	8.246
0.089749	8.2875
0.127034	8.3912
0.153444	8.4475
