Adsorption isotherm of Methanol on Ti-BTC
DOI: 10.1021/acsami.5b07665
Article source: Figure 5
Adsorbate Methanol: InChIKey OKKJLVBELUTLKV-UHFFFAOYSA-N
Kind: experiment
Temperature: 298 K
Tabular data in the source: 0
pressure (bar)	uptake (mmol/g)
0.001324	3.7598
0.001427	1.6686
0.001597	5.771
0.001643	8.9567
0.002144	9.5975
0.00307	10.3584
0.004147	10.9547
0.00555	11.6222
0.006978	12.3386
0.008531	13.1173
0.010636	14.261
0.013141	15.5781
0.015997	16.7708
0.020859	17.7099
0.030915	18.5299
0.035842	18.8273
0.040832	18.9453
0.050737	19.1578
0.055575	19.2649
0.060663	19.3943
0.070489	19.5729
0.080391	19.7515
0.090292	19.8678
0.100193	19.9307
0.11022	20.0382
0.120072	20.0922
0.139899	20.2225
