Adsorption isotherm of Acetone on Ti-BTC
DOI: 10.1021/acsami.5b07665
Article source: Figure 5
Adsorbate Acetone: InChIKey CSCPPACGZOOCGX-UHFFFAOYSA-N
Kind: experiment
Temperature: 298 K
Tabular data in the source: 0
pressure (bar)	uptake (mmol/g)
0.000329	0.6827
0.000933	0.7735
0.001662	0.9143
0.001964	1.0209
0.002921	1.4293
0.004836	2.7087
0.005922	4.2965
0.007234	6.0976
0.007917	7.5288
0.011944	8.7133
0.01997	9.3244
0.030031	9.489
0.039941	9.5584
0.049977	9.596
0.060039	9.6313
0.07996	9.6588
0.099956	9.768
0.125009	9.8257
0.140125	9.8458
