Adsorption isotherm of Carbon Dioxide on PCN-26
DOI: 10.1021/ie403159c
Article source: Figure 1
Adsorbate Carbon Dioxide: InChIKey CURLTUGMZLYLDI-UHFFFAOYSA-N
Kind: experiment
Temperature: 298 K
Tabular data in the source: 0
pressure (bar)	uptake (cm3(STP)/g)
0.02348	6.272
0.09653	16.327
0.19579	28.721
0.3118	44.622
0.4407	57.839
0.55497	68.016
0.67871	79.013
0.85141	92.353
0.95709	101.361
1.02024	105.575
