Adsorption isotherm of Methane on PCN-26
DOI: 10.1021/ie403159c
Article source: Figure 1
Adsorbate Methane: InChIKey VNWKTOKETHGBQD-UHFFFAOYSA-N
Kind: experiment
Temperature: 298 K
Tabular data in the source: 0
pressure (bar)	uptake (cm3(STP)/g)
0.05385	2.583
0.09092	3.802
0.1376	4.839
0.18942	6.502
0.24597	7.798
0.3009	9.609
0.35799	10.611
0.42712	12.166
0.48259	13.535
0.5378	15.456
0.5957	16.053
0.65022	16.687
0.70583	18.865
0.76873	19.426
0.83151	21.201
0.88049	22.57
0.92919	23.202
1.00563	25.2
1.04459	25.059
