Adsorption isotherm of Nitrogen on PCN-26
DOI: 10.1021/ie403159c
Article source: Figure 1
Adsorbate Nitrogen: InChIKey IJGRMHOSHXDMSA-UHFFFAOYSA-N
Kind: experiment
Temperature: 298 K
Tabular data in the source: 0
pressure (bar)	uptake (cm3(STP)/g)
0.0966	1.964
0.16993	3.446
0.23702	3.53
0.33741	4.648
0.47486	5.183
0.61366	6.528
0.74597	7.357
0.88314	8.26
1.05469	9.683
