Adsorption isotherm of Hydrogen on PCN-26
DOI: 10.1021/ie403159c
Article source: Figure 1
Adsorbate Hydrogen: InChIKey UFHFLCQGNIYNRP-UHFFFAOYSA-N
Kind: experiment
Temperature: 87 K
Tabular data in the source: 0
pressure (bar)	uptake (wt%)
0.0208	0.10364
0.04369	0.20128
0.07973	0.33518
0.14583	0.54972
0.17573	0.58822
0.21023	0.68736
0.28386	0.8361
0.33989	0.93158
0.4142	1.05963
0.46989	1.12923
0.57171	1.2662
0.60758	1.32837
0.69932	1.42983
0.7451	1.47871
0.85426	1.57132
0.9009	1.6313
1.00767	1.72687
1.04251	1.75946
