Adsorption isotherm of Hydrogen on PCN-26
DOI: 10.1021/ie403159c
Article source: Figure 1
Adsorbate Hydrogen: InChIKey UFHFLCQGNIYNRP-UHFFFAOYSA-N
Kind: experiment
Temperature: 77 K
Tabular data in the source: 0
pressure (bar)	uptake (wt%)
0.01994	0.28281
0.05867	0.58843
0.10343	0.8419
0.17316	1.12522
0.24719	1.37501
0.31693	1.56145
0.3901	1.73671
0.45467	1.8598
0.56142	2.02394
0.65871	2.17316
0.76891	2.29632
0.87824	2.41576
0.98328	2.50537
1.04354	2.55765
