Adsorption isotherm of Methane on PCN-26
DOI: 10.1021/ie403159c
Article source: Figure 1
Adsorbate Methane: InChIKey VNWKTOKETHGBQD-UHFFFAOYSA-N
Kind: experiment
Temperature: 195 K
Tabular data in the source: 0
pressure (bar)	uptake (cm3(STP)/g)
0.04929	32.432
0.08839	40.554
0.10988	51.417
0.13781	57.26
0.16209	67.364
0.1883	76.768
0.2143	84.187
0.24911	93.826
0.26952	101.712
0.29487	107.963
0.31593	117.483
0.34837	122.743
0.37458	130.629
0.40316	139.858
0.44784	149.207
0.51078	162.003
0.60638	182.978
0.70025	197.238
0.79541	212.841
0.8781	225.524
0.94511	230.613
1.02222	239.616
1.08236	245.23
