Adsorption isotherm of Deuterium on Fe-MOF-74
DOI: 10.1021/Ja402103u
Adsorbate Deuterium: InChIKey UFHFLCQGNIYNRP-VVKOMZTBSA-N
Temperature: 77 K
Tabular data in the source: 0
pressure (bar)	uptake (mmol/g)
0.00206155	1.13408
0.00301498	2.57566
0.00492184	3.59011
0.00968898	3.93334
0.0735687	4.85626
0.137448	5.39781
0.244232	6.08428
0.369132	6.65633
0.49117	7.14449
0.602722	7.43433
0.723807	7.72417
0.841079	7.99876
0.965025	8.21233
1.0823	8.40302
