Adsorption isotherm of Deuterium on Fe-MOF-74
DOI: 10.1021/Ja402103u
Adsorbate Deuterium: InChIKey UFHFLCQGNIYNRP-VVKOMZTBSA-N
Temperature: 77 K
Tabular data in the source: 0
pressure (bar)	uptake (mmol/g)
1.11e-05	0.000896
8.59e-05	0.0294984
0.000183	0.0681123
0.000366	0.129608
0.000847	0.238299
0.00171928	0.325538
0.00296019	0.384174
0.00674304	0.44853
0.0130282	0.491435
0.0797008	0.608706
0.130612	0.665912
0.236271	0.757441
0.380873	0.833239
0.574842	0.927628
0.773146	0.989124
0.957681	1.03203
