Adsorption isotherm of Hydrogen on Fe-MOF-74
DOI: 10.1021/Ja402103u
Adsorbate Hydrogen: InChIKey UFHFLCQGNIYNRP-UHFFFAOYSA-N
Temperature: 120 K
Tabular data in the source: 0
pressure (bar)	uptake (mmol/g)
0.0135027	0.0738633
0.0726153	0.478117
0.131728	0.790842
0.25472	1.34764
0.376759	1.80529
0.489264	2.1409
0.605582	2.43074
0.730481	2.6977
0.846799	2.94178
0.962164	3.14009
1.0823	3.31552
