Adsorption isotherm of Hydrogen on Fe-MOF-74
DOI: 10.1021/Ja402103u
Adsorbate Hydrogen: InChIKey UFHFLCQGNIYNRP-UHFFFAOYSA-N
Temperature: 100 K
Tabular data in the source: 0
pressure (bar)	uptake (mmol/g)
0.00492184	0.287431
0.0135027	0.584901
0.0726153	2.02649
0.125054	2.72058
0.268068	3.59774
0.412036	4.06301
0.55505	4.39099
0.681856	4.62744
0.72476	4.71897
0.84966	4.8944
0.962164	5.05457
1.08325	5.19187
