Adsorption isotherm of Deuterium on Fe-MOF-74
DOI: 10.1021/Ja402103u
Adsorbate Deuterium: InChIKey UFHFLCQGNIYNRP-VVKOMZTBSA-N
Temperature: 90 K
Tabular data in the source: 0
pressure (bar)	uptake (mmol/g)
3.31e-05	0.000896
6.93e-05	0.00232571
0.000174	0.005186
0.000391	0.0180573
0.000833	0.035219
0.00171928	0.0738329
0.00311008	0.126748
0.00621015	0.196825
0.0130282	0.294075
0.0710244	0.479993
0.132781	0.54578
0.269535	0.611567
0.362517	0.64732
0.584385	0.717397
0.942041	0.796055
