Adsorption isotherm of Hydrogen on Fe-MOF-74
DOI: 10.1021/Ja402103u
Adsorbate Hydrogen: InChIKey UFHFLCQGNIYNRP-UHFFFAOYSA-N
Temperature: 120 K
Tabular data in the source: 0
pressure (bar)	uptake (mmol/g)
0.000255	0.000896
0.000662	0.00232571
0.00150709	0.00232571
0.00311008	0.00232571
0.00641805	0.00375585
0.0130282	0.00804628
0.0734022	0.055241
0.124317	0.0938549
0.248234	0.163932
0.362517	0.223998
0.479613	0.268332
0.565455	0.302656
0.677728	0.34127
0.812295	0.364152
0.926658	0.385604
