Adsorption isotherm of Deuterium on Fe-MOF-74
DOI: 10.1021/Ja402103u
Adsorbate Deuterium: InChIKey UFHFLCQGNIYNRP-VVKOMZTBSA-N
Temperature: 120 K
Tabular data in the source: 0
pressure (bar)	uptake (mmol/g)
0.0192233	0.150138
0.0745221	0.722195
0.132681	1.12645
0.25472	1.79766
0.371038	2.30107
0.48831	2.63668
0.609396	2.97229
0.728574	3.19348
0.844893	3.41468
0.972652	3.58248
1.08134	3.78079
