Adsorption isotherm of Hydrogen on Fe-MOF-74
DOI: 10.1021/Ja402103u
Adsorbate Hydrogen: InChIKey UFHFLCQGNIYNRP-UHFFFAOYSA-N
Temperature: 100 K
Tabular data in the source: 0
pressure (bar)	uptake (mmol/g)
0.000132	0.00232571
0.000372	0.00375585
0.000742	0.005186
0.00166358	0.00804628
0.00311008	0.0137669
0.00696878	0.0337889
0.0134644	0.0738329
0.0698646	0.24688
0.122287	0.338409
0.256545	0.437089
0.413556	0.502876
0.529413	0.54292
0.677728	0.582964
0.911525	0.630158
