Adsorption isotherm of Hydrogen on Fe-MOF-74
DOI: 10.1021/Ja402103u
Adsorbate Hydrogen: InChIKey UFHFLCQGNIYNRP-UHFFFAOYSA-N
Temperature: 77 K
Tabular data in the source: 0
pressure (bar)	uptake (mmol/g)
2.26e-05	0.00375585
6.39e-05	0.00804628
0.000171	0.0266381
0.000397	0.0595314
0.000935	0.131039
0.00316171	0.286924
0.00621015	0.368442
0.0130282	0.431369
0.077119	0.560081
0.139504	0.624438
0.248234	0.704526
0.356597	0.767452
0.60395	0.84897
0.785981	0.913327
0.942041	0.94622
