Adsorption isotherm of Hydrogen on Fe-MOF-74
DOI: 10.1021/Ja402103u
Adsorbate Hydrogen: InChIKey UFHFLCQGNIYNRP-UHFFFAOYSA-N
Temperature: 77 K
Tabular data in the source: 0
pressure (bar)	uptake (mmol/g)
0.00206155	1.08068
0.00301498	1.72139
0.00587527	2.28582
0.00873556	2.94178
0.0154096	3.49858
0.076429	4.48252
0.143169	4.98593
0.25758	5.62663
0.369132	6.07665
0.48831	6.50379
0.607489	6.83177
0.72476	7.07584
0.842032	7.31992
0.967885	7.564
1.0823	7.73943
