Adsorption isotherm of Deuterium on Fe-MOF-74
DOI: 10.1021/Ja402103u
Adsorbate Deuterium: InChIKey UFHFLCQGNIYNRP-VVKOMZTBSA-N
Temperature: 120 K
Tabular data in the source: 0
pressure (bar)	uptake (mmol/g)
0.000337	0.00232571
0.000695	0.00232571
0.00143446	0.000896
0.00300933	0.00375585
0.00641805	0.00661614
0.0128154	0.0180573
0.0698646	0.0809836
0.126381	0.14534
0.256545	0.218277
0.356597	0.282634
0.495669	0.329828
0.584385	0.365582
0.700418	0.399905
0.812295	0.422788
0.926658	0.44853
