Adsorption isotherm of Hydrogen on Fe-MOF-74
DOI: 10.1021/Ja402103u
Adsorbate Hydrogen: InChIKey UFHFLCQGNIYNRP-UHFFFAOYSA-N
Temperature: 90 K
Tabular data in the source: 0
pressure (bar)	uptake (mmol/g)
5.98e-05	0.000896
0.000169	0.005186
0.000354	0.005186
0.000755	0.015197
0.00177684	0.035219
0.00326756	0.0695424
0.00631324	0.113877
0.0132445	0.199685
0.0797008	0.428508
0.14182	0.487144
0.265134	0.557221
0.413556	0.610137
0.574842	0.660191
0.677728	0.684504
0.957681	0.727408
