Adsorption isotherm of Deuterium on Fe-MOF-74
DOI: 10.1021/Ja402103u
Adsorbate Deuterium: InChIKey UFHFLCQGNIYNRP-VVKOMZTBSA-N
Temperature: 90 K
Tabular data in the source: 0
pressure (bar)	uptake (mmol/g)
0.00301498	0.0204713
0.00396841	1.90445
0.00492184	0.661175
0.0154096	2.38497
0.076429	3.92572
0.140309	4.36811
0.275696	4.90965
0.364364	5.17661
0.48831	5.48934
0.603675	5.76393
0.725714	6.008
0.844893	6.20632
0.962164	6.42751
1.0842	6.60294
