Adsorption isotherm of Deuterium on Fe-MOF-74
DOI: 10.1021/Ja402103u
Adsorbate Deuterium: InChIKey UFHFLCQGNIYNRP-VVKOMZTBSA-N
Temperature: 100 K
Tabular data in the source: 0
pressure (bar)	uptake (mmol/g)
0.000755	0.00947643
0.00158341	0.015197
0.00343302	0.0395094
0.0065246	0.0681123
0.0141461	0.121028
0.0698646	0.34127
0.126381	0.422788
0.27401	0.510026
0.406802	0.558651
0.547137	0.600125
0.677728	0.637309
0.942041	0.683074
