Adsorption isotherm of Deuterium on Fe-MOF-74
DOI: 10.1021/Ja402103u
Adsorbate Deuterium: InChIKey UFHFLCQGNIYNRP-VVKOMZTBSA-N
Temperature: 100 K
Tabular data in the source: 0
pressure (bar)	uptake (mmol/g)
0.0115958	0.958645
0.0773824	2.78923
0.135542	3.41468
0.277602	4.10115
0.41585	4.51303
0.554097	4.8105
0.607489	4.90965
0.723807	5.10797
0.846799	5.2834
0.965025	5.49697
1.08611	5.64951
