Adsorption isotherm of Hydrogen on Fe-MOF-74
DOI: 10.1021/Ja402103u
Adsorbate Hydrogen: InChIKey UFHFLCQGNIYNRP-UHFFFAOYSA-N
Temperature: 90 K
Tabular data in the source: 0
pressure (bar)	uptake (mmol/g)
0.00110812	0.310314
0.00873556	0.966273
0.0144561	1.59172
0.083103	3.45281
0.140309	3.93334
0.274742	4.48252
0.41585	4.87152
0.556004	5.16899
0.604629	5.29103
0.727621	5.48934
0.842032	5.6724
0.964071	5.84783
1.08897	6.02326
