Adsorption isotherm of Nitrogen on COF-JLU4
DOI: 10.1039/c6cc05748a
Article source: Figure 2
Adsorbate Nitrogen: InChIKey IJGRMHOSHXDMSA-UHFFFAOYSA-N
Kind: experiment
Temperature: 77 K
Tabular data in the source: 0
pressure (bar)	uptake (cm3(STP)/g)
0.00911	99.7988
0.007761	77.6727
0.007761	61.3882
0.007761	45.8484
0.01461	123.761
0.010485	28.5322
0.02355	144.134
0.034484	163.906
0.045705	180.981
0.065194	195.486
0.087152	211.691
0.108579	227.42
0.139106	240.244
0.176293	250.226
0.210222	255.606
0.243043	257.438
0.265207	257.677
0.301291	261.147
0.343222	264.036
0.379809	266.261
0.398295	281.66
0.430173	283.807
0.420446	268.97
0.462314	270.073
0.49779	273.396
0.533454	276.157
0.573378	280.393
0.630802	284.389
0.665049	285.65
0.706908	288.909
0.74135	291.309
0.778736	296.904
0.814644	301.301
0.849721	305.938
0.879765	311.736
0.916555	319.2
0.939105	327.581
0.967822	337.227
0.999786	371.898
0.990653	348.683
0.217626	252.723
0.182525	250.545
0.250387	262.527
0.280808	269.063
0.311229	273.42
0.34399	275.599
0.369731	277.778
0.463334	289.76
0.489074	294.118
0.524176	297.386
0.552256	302.832
0.585017	305.011
0.613098	308.824
0.643519	313.725
0.68564	320.261
0.709041	323.529
0.741802	328.976
0.775733	334.423
0.802644	338.235
0.840085	340.959
0.865826	343.137
0.900927	346.405
0.931348	345.316
0.950068	350.763
0.980489	357.298
0.00936	13.0719
