Adsorption isotherm of Carbon Dioxide on COF-JLU4
DOI: 10.1039/c6cc05748a
Article source: Figure S4
Adsorbate Carbon Dioxide: InChIKey CURLTUGMZLYLDI-UHFFFAOYSA-N
Kind: experiment
Temperature: 273 K
Tabular data in the source: 0
pressure (bar)	uptake (mg/g)
0.163705	22.2453
0.203881	29.1943
0.257364	36.0747
0.314366	41.4668
0.358555	47.3562
0.415294	53.8938
0.45896	59.1239
0.509122	65.1303
0.559366	70.4557
0.601302	76.2479
0.65951	83.3967
0.696519	87.5746
0.754163	94.7508
0.792459	98.8083
0.839927	106.06
0.893333	111.81
0.934767	117.019
0.996288	124.768
0.95421	119.949
0.977843	122.222
0.113737	16.9192
0.087149	13.6364
0.062038	9.09091
0.036928	5.05051
0.01034	2.0202
