Adsorption isotherm of Carbon Dioxide on COF-JLU4
DOI: 10.1039/c6cc05748a
Article source: Figure S4
Adsorbate Carbon Dioxide: InChIKey CURLTUGMZLYLDI-UHFFFAOYSA-N
Kind: experiment
Temperature: 298 K
Tabular data in the source: 0
pressure (bar)	uptake (mg/g)
0.109698	6.50481
0.153393	7.9449
0.196608	11.0902
0.240303	14.1487
0.282074	16.9649
0.322583	19.1992
0.362253	21.4981
0.405358	24.078
0.45076	28.1702
0.493974	31.9008
0.53599	35.079
0.577408	38.9189
0.619766	42.4112
0.662125	46.4287
0.700248	49.0795
0.745077	53.7765
0.788773	57.0635
0.831987	60.3918
0.873918	64.8904
0.920513	68.2698
0.989228	74.6799
0.079764	4.0404
0.050222	2.52525
0.946824	71.4646
0.967504	73.2323
