Adsorption isotherm of Nitrogen on IRMOF-3
DOI: 10.1021/Ic100652x
Adsorbate Nitrogen: InChIKey IJGRMHOSHXDMSA-UHFFFAOYSA-N
Temperature: 77 K
Tabular data in the source: 0
pressure (bar)	uptake (ml/g)
0.0560166	641.42
0.105809	663.364
0.155602	666.632
0.207469	673.019
0.244813	679.361
0.404564	689.197
0.497925	698.826
0.603734	702.268
0.69917	705.678
0.802905	709.114
0.900415	712.53
0.991701	715.927
