Adsorption isotherm of Nitrogen on IRMOF-3b
DOI: 10.1021/Ic100652x
Adsorbate Nitrogen: InChIKey IJGRMHOSHXDMSA-UHFFFAOYSA-N
Temperature: 77 K
Tabular data in the source: 0
pressure (bar)	uptake (ml/g)
0.0518672	389.267
0.105809	408.111
0.149378	405.134
0.209544	414.66
0.253112	408.57
0.311203	418.089
0.354772	418.225
0.39834	418.361
0.551867	431.29
0.753112	435.029
0.900415	432.375
0.989627	451.33
