Adsorption isotherm of Nitrogen on IRMOF-3c
DOI: 10.1021/Ic100652x
Adsorbate Nitrogen: InChIKey IJGRMHOSHXDMSA-UHFFFAOYSA-N
Temperature: 77 K
Tabular data in the source: 0
pressure (bar)	uptake (ml/g)
0.0539419	146.471
0.10166	143.507
0.157676	156.133
0.257261	159.556
0.29668	156.566
0.350622	162.959
0.404564	156.901
0.502075	160.318
0.655602	160.796
0.89834	167.777
0.946058	180.377
0.987552	239.65
