Adsorption isotherm of Carbon Dioxide, Methane on Coal samples from CARBOLAB
DOI: 10.1016/j.egypro.2014.11.620
Article source: Tables 3-4
Adsorbate Carbon Dioxide: InChIKey CURLTUGMZLYLDI-UHFFFAOYSA-N
Adsorbate Methane: InChIKey VNWKTOKETHGBQD-UHFFFAOYSA-N
Kind: experiment
Temperature: 298 K
Tabular data in the source: 0
pressure (bar)	Carbon Dioxide fraction	Carbon Dioxide uptake (mmol/g)	Methane fraction	Methane uptake (mmol/g)	total uptake (mmol/g)
5	0.3	0.39	0.7	0.39	
10	0.3	0.52	0.7	0.36	
20	0.3	0.61	0.7	0.4	
30	0.3	0.87	0.7	0.39	
40	0.3	0.87	0.7	0.3	
50	0.3	1.08	0.7	0.16	
