Adsorption isotherm of Carbon Dioxide, Methane on Coal samples from CARBOLAB
DOI: 10.1016/j.egypro.2014.11.620
Article source: Tables 3-4
Adsorbate Carbon Dioxide: InChIKey CURLTUGMZLYLDI-UHFFFAOYSA-N
Adsorbate Methane: InChIKey VNWKTOKETHGBQD-UHFFFAOYSA-N
Kind: experiment
Temperature: 298 K
Tabular data in the source: 0
pressure (bar)	Carbon Dioxide fraction	Carbon Dioxide uptake (mmol/g)	Methane fraction	Methane uptake (mmol/g)	total uptake (mmol/g)
5	0.5	0.37	0.5	0.21	
10	0.5	0.53	0.5	0.33	
20	0.5	0.89	0.5	0.21	
30	0.5	1.05	0.5	0.16	
40	0.5	1.12	0.5	0.25	
50	0.5	1.39	0.5	0.18	
