Adsorption isotherm of Carbon Dioxide, Methane on Coal samples from CARBOLAB
DOI: 10.1016/j.egypro.2014.11.620
Article source: Tables 3-4
Adsorbate Carbon Dioxide: InChIKey CURLTUGMZLYLDI-UHFFFAOYSA-N
Adsorbate Methane: InChIKey VNWKTOKETHGBQD-UHFFFAOYSA-N
Kind: experiment
Temperature: 298 K
Tabular data in the source: 0
pressure (bar)	Carbon Dioxide fraction	Carbon Dioxide uptake (mmol/g)	Methane fraction	Methane uptake (mmol/g)	total uptake (mmol/g)
5	0.9	0.55	0.1	0.57	
10	0.9	0.71	0.1	0.41	
20	0.9	0.73	0.1	0.38	
30	0.9	0.73	0.1	0.38	
40	0.9	0.96	0.1	0.25	
50	0.9	1.17	0.1	0.04	
