Adsorption isotherm of Carbon Dioxide, Methane on Coal samples from CARBOLAB
DOI: 10.1016/j.egypro.2014.11.620
Article source: Tables 3-4
Adsorbate Carbon Dioxide: InChIKey CURLTUGMZLYLDI-UHFFFAOYSA-N
Adsorbate Methane: InChIKey VNWKTOKETHGBQD-UHFFFAOYSA-N
Kind: experiment
Temperature: 298 K
Tabular data in the source: 0
pressure (bar)	Carbon Dioxide fraction	Carbon Dioxide uptake (mmol/g)	Methane fraction	Methane uptake (mmol/g)	total uptake (mmol/g)
5	0.1	0.37	0.9	0.32	
10	0.1	0.38	0.9	0.34	
20	0.1	0.52	0.9	0.39	
30	0.1	0.71	0.9	0.21	
40	0.1	0.85	0.9	0	
50	0.1	0.85	0.9	0	
