Adsorption isotherm of Carbon Dioxide, Methane on Coal samples from CARBOLAB
DOI: 10.1016/j.egypro.2014.11.620
Article source: Table 3, Tables 3-4
Adsorbate Carbon Dioxide: InChIKey CURLTUGMZLYLDI-UHFFFAOYSA-N
Adsorbate Methane: InChIKey VNWKTOKETHGBQD-UHFFFAOYSA-N
Kind: experiment
Temperature: 298 K
Tabular data in the source: 0
pressure (bar)	Carbon Dioxide fraction	Carbon Dioxide uptake (mmol/g)	Methane fraction	Methane uptake (mmol/g)	total uptake (mmol/g)
5	1	0.65	0	0.71	
10	1	0.84	0	0.71	
20	1	1.12	0	0.68	
30	1	1.26	0	0.66	
40	1	1.37	0	0.44	
50	1	1.47	0	0.32	
