Adsorption isotherm of Carbon Dioxide on MIL-53(Cr)
DOI: 10.1002/adma.200602645
Adsorbate Carbon Dioxide: InChIKey CURLTUGMZLYLDI-UHFFFAOYSA-N
Temperature: 304 K
Tabular data in the source: 0
pressure (bar)	uptake (mmol/g)
0.14003	0.204187
0.273866	0.996459
0.325569	0.587236
0.365962	1.25191
0.456173	1.68633
0.926619	2.01752
1.30362	2.2211
2.05844	2.55156
2.48418	2.62717
3.0513	2.77913
3.52444	2.85463
3.94937	3.00695
4.65949	3.08184
4.79978	3.26046
5.26888	3.71948
5.40918	3.8981
5.69059	4.17863
5.96661	4.97054
6.57655	5.55705
6.85526	6.09327
7.18244	6.52709
7.55864	6.80738
7.88825	7.01108
8.50168	7.26519
9.16305	7.46805
9.58853	7.56923
10.3926	7.72059
12.0959	7.99748
13.4684	8.17295
14.8886	8.32273
15.93	8.44791
16.9711	8.59865
17.8702	8.7242
18.6277	8.79896
19.4323	8.89918
