Adsorption isotherm of Carbon Dioxide, Methane on Activated carbon: CGran
DOI: 10.1016/j.jece.2019.103368
Article source: Table 4
Adsorbate Carbon Dioxide: InChIKey CURLTUGMZLYLDI-UHFFFAOYSA-N
Adsorbate Methane: InChIKey VNWKTOKETHGBQD-UHFFFAOYSA-N
Kind: experiment
Temperature: 303 K
Tabular data in the source: 0
pressure (bar)	Carbon Dioxide fraction	Carbon Dioxide uptake (mmol/g)	Methane fraction	Methane uptake (mmol/g)	total uptake (mmol/g)
2.741	0.5	0.7634	0.5	0.6353	
4.953	0.5	1.4022	0.5	0.7355	
7.369	0.5	1.9722	0.5	0.8437	
10.465	0.5	2.4035	0.5	0.9544	
13.864	0.5	2.8711	0.5	1.0073	
17.355	0.5	3.2955	0.5	0.9985	
20.977	0.5	3.7111	0.5	0.9558	
27.128	0.5	4.4094	0.5	0.7547	
