Adsorption isotherm of Carbon Dioxide, Methane on Activated carbon: GAC 1240
DOI: 10.1016/j.jece.2019.103368
Article source: Table 5
Adsorbate Carbon Dioxide: InChIKey CURLTUGMZLYLDI-UHFFFAOYSA-N
Adsorbate Methane: InChIKey VNWKTOKETHGBQD-UHFFFAOYSA-N
Kind: experiment
Temperature: 303 K
Tabular data in the source: 0
pressure (bar)	Carbon Dioxide fraction	Carbon Dioxide uptake (mmol/g)	Methane fraction	Methane uptake (mmol/g)	total uptake (mmol/g)
3.701	0.5	1.7658	0.5	1.3821	
5.956	0.5	2.5465	0.5	1.4565	
8.475	0.5	3.3044	0.5	1.4567	
11.765	0.5	3.8565	0.5	1.4955	
14.991	0.5	4.2295	0.5	1.6203	
18.955	0.5	4.6456	0.5	1.5965	
23.293	0.5	5.0742	0.5	1.5611	
