Adsorption isotherm of Carbon Dioxide, Methane on Activated carbon: Rox 0.8
DOI: 10.1016/j.jece.2019.103368
Article source: Table 7
Adsorbate Carbon Dioxide: InChIKey CURLTUGMZLYLDI-UHFFFAOYSA-N
Adsorbate Methane: InChIKey VNWKTOKETHGBQD-UHFFFAOYSA-N
Kind: experiment
Temperature: 303 K
Tabular data in the source: 0
pressure (bar)	Carbon Dioxide fraction	Carbon Dioxide uptake (mmol/g)	Methane fraction	Methane uptake (mmol/g)	total uptake (mmol/g)
2.702	0.5	1.4886	0.5	1.4134	
5.465	0.5	2.7655	0.5	1.7155	
7.958	0.5	3.5267	0.5	1.8543	
12.156	0.5	4.6947	0.5	1.6456	
16.161	0.5	5.4755	0.5	1.4644	
19.901	0.5	5.7806	0.5	1.3953	
23.297	0.5	5.9427	0.5	1.3215	
