Adsorption isotherm of Carbon Dioxide, Methane on Activated carbon: CNR-115
DOI: 10.1016/j.jece.2019.103368
Article source: Table 6
Adsorbate Carbon Dioxide: InChIKey CURLTUGMZLYLDI-UHFFFAOYSA-N
Adsorbate Methane: InChIKey VNWKTOKETHGBQD-UHFFFAOYSA-N
Kind: experiment
Temperature: 303 K
Tabular data in the source: 0
pressure (bar)	Carbon Dioxide fraction	Carbon Dioxide uptake (mmol/g)	Methane fraction	Methane uptake (mmol/g)	total uptake (mmol/g)
2.161	0.5	0.8515	0.5	0.8356	
4.545	0.5	1.8357	0.5	1.1345	
8.097	0.5	2.8457	0.5	1.6295	
11.745	0.5	3.2647	0.5	2.0943	
15.724	0.5	3.5314	0.5	2.5574	
19.456	0.5	3.8085	0.5	2.8433	
23.211	0.5	4.0862	0.5	3.158	
