Adsorption isotherm of Carbon Dioxide, Methane on Activated carbon: RX 1.5
DOI: 10.1016/j.jece.2019.103368
Article source: Table 3
Adsorbate Carbon Dioxide: InChIKey CURLTUGMZLYLDI-UHFFFAOYSA-N
Adsorbate Methane: InChIKey VNWKTOKETHGBQD-UHFFFAOYSA-N
Kind: experiment
Temperature: 303 K
Tabular data in the source: 0
pressure (bar)	Carbon Dioxide fraction	Carbon Dioxide uptake (mmol/g)	Methane fraction	Methane uptake (mmol/g)	total uptake (mmol/g)
2.052	0.5	1.2622	0.5	1.2441	
5.234	0.5	3.0525	0.5	1.9505	
7.737	0.5	3.8819	0.5	2.3566	
11.546	0.5	4.3765	0.5	2.9535	
15.371	0.5	4.7739	0.5	3.5132	
19.547	0.5	5.1547	0.5	3.9957	
23.429	0.5	5.4857	0.5	4.2973	
