Adsorption isotherm of Nitrogen on KGM fabric
DOI: 10.1007/s10450-022-00357-9
Article source: Figure 5
Adsorbate Nitrogen: InChIKey IJGRMHOSHXDMSA-UHFFFAOYSA-N
Kind: experiment
Temperature: 77 K
Tabular data in the source: 0
pressure (bar)	uptake ()
0.005287	1.97445
0.008223	2.32288
0.011748	2.55517
0.025258	3.13589
0.053453	4.06504
0.076361	4.64576
0.102793	4.99419
0.128051	5.22648
0.153309	5.69106
0.179154	5.92335
0.203825	6.27178
0.22967	6.62021
0.254928	6.8525
0.280186	7.08478
0.304856	7.31707
0.355959	7.6655
0.406475	8.36237
0.45699	9.17538
0.507506	9.63995
0.556847	10.453
0.612062	11.0337
0.66199	11.9628
0.711918	13.1243
0.761259	14.518
0.81295	16.6086
0.862878	20.2091
0.888136	22.9965
0.912806	27.0616
0.932777	31.5912
0.954511	39.0244
0.965084	44.1347
0.976832	53.7747
0.98623	63.6469
0.993279	74.4483
0.99739	85.8304
1.00033	98.4901
1.00326	110.569
1.00561	123.461
1.0062	137.515
1.00738	151.22
1.00855	164.808
1.0062	157.027
1.00738	150.871
1.00444	144.832
1.00209	133.449
1.00033	121.951
0.996216	110.918
0.994453	100
0.991517	89.547
0.98623	79.0941
0.980943	68.9895
0.972133	58.5366
0.95921	48.7805
0.928666	36.2369
0.949224	44.5993
0.909869	31.475
0.884024	26.9454
0.859353	23.4611
0.810013	18.9315
0.75656	16.0279
0.708981	13.8211
0.656116	12.4274
0.605013	11.1498
0.554497	10.453
0.503982	9.63995
0.453466	8.7108
0.4053	8.24623
0.355372	7.6655
0.303681	7.31707
0.25434	6.62021
0.200888	6.03949
0.150372	5.45877
0.100444	4.76191
