Adsorption isotherm of Nitrogen on KGM-DNA composite fabric
DOI: 10.1007/s10450-022-00357-9
Article source: Figure 5
Adsorbate Nitrogen: InChIKey IJGRMHOSHXDMSA-UHFFFAOYSA-N
Kind: experiment
Temperature: 77 K
Tabular data in the source: 0
pressure (bar)	uptake (cm3(STP)/g)
0.002937	0.464576
0.006461	0.696864
0.009986	0.929152
0.02702	1.27758
0.052278	1.62602
0.078123	1.8583
0.103968	1.97445
0.129226	2.09059
0.154484	2.20674
0.180329	2.20674
0.205	2.43902
0.230257	2.55517
0.256103	2.67131
0.280773	2.9036
0.306618	2.78746
0.357134	3.13589
0.408237	3.25203
0.45934	3.36818
0.509268	3.71661
0.559784	3.9489
0.609712	4.18118
0.660228	4.52962
0.710743	4.87805
0.760672	5.22648
0.8106	5.69106
0.861116	6.50407
0.888136	7.31707
0.912219	8.13008
0.933952	9.29152
0.95686	11.4983
0.964497	12.7758
0.975657	15.7956
0.98623	21.6028
0.994453	30.7782
0.999153	37.5145
1.00209	48.5482
1.00326	61.0918
1.00503	73.2869
1.0062	86.9919
1.00679	100.465
1.00738	113.705
1.00796	126.713
1.00855	139.837
1.00855	152.962
1.0062	140.07
1.0062	127.526
1.00503	113.589
1.00385	100.929
1.00268	90.2439
1.0015	77.1196
1.00033	64.8084
0.99739	52.4971
0.993279	40.302
0.987992	28.4553
0.979181	20.2091
0.965671	14.8664
0.955098	12.1951
0.948637	11.4983
0.925729	9.29152
0.906932	8.24623
0.885199	7.31707
0.805313	5.57491
0.758322	4.76191
0.708981	4.52962
0.657878	4.18118
0.606188	3.83275
0.555085	3.60047
0.504569	3.36818
0.453466	3.13589
0.403538	3.01974
0.352435	2.67131
0.301919	2.55517
0.252578	2.43902
0.202063	2.20674
0.15096	1.97445
0.100444	1.62602
