Adsorption isotherm of 2-Propanol, Water on Molecular sieves 3A
DOI: 10.1021/acs.iecr.1c02778
Article source: Figure 3
Adsorbate 2-Propanol: InChIKey KFZMGEQAYNKOFK-UHFFFAOYSA-N
Adsorbate Water: InChIKey XLYOFNOQVPJJNP-UHFFFAOYSA-N
Kind: experiment
Temperature: 295 K
Tabular data in the source: 0
pressure (bar)	2-Propanol fraction	2-Propanol uptake (g/g)	Water fraction	Water uptake (g/g)	total uptake (g/g)
1.01325			1.2e-05	0.000132	
1.01325			7.8e-05	0.024258	
1.01325			0.000157	0.070534	
1.01325			0.000427	0.115359	
1.01325			0.004417	0.154779	
