Adsorption isotherm of Methane, Formaldehyde on Molecular sieves 3A
DOI: 10.1021/acs.iecr.1c02778
Article source: Figure 4 (middle)
Adsorbate Methane: InChIKey VNWKTOKETHGBQD-UHFFFAOYSA-N
Adsorbate Formaldehyde: InChIKey WSFSSNUMVMOOMR-UHFFFAOYSA-N
Kind: experiment
Temperature: 313 K
Tabular data in the source: 0
pressure (bar)	Methane fraction	Methane uptake (g/g)	Formaldehyde fraction	Formaldehyde uptake (g/g)	total uptake (g/g)
1.01325	1	0.119809	0	0.000953	
1.01325	0.804983	0.115042	0.195017	0.034004	
1.01325	0.756873	0.104873	0.243127	0.036864	
1.01325	0.623711	0.066419	0.376289	0.075318	
