Adsorption isotherm of Methane, Water on Molecular sieves 3A
DOI: 10.1021/acs.iecr.1c02778
Article source: Figure 4 (bottom)
Adsorbate Methane: InChIKey VNWKTOKETHGBQD-UHFFFAOYSA-N
Adsorbate Water: InChIKey XLYOFNOQVPJJNP-UHFFFAOYSA-N
Kind: experiment
Temperature: 313 K
Tabular data in the source: 0
pressure (bar)	Methane fraction	Methane uptake (g/g)	Water fraction	Water uptake (g/g)	total uptake (g/g)
1.01325	0	0.000425	1	0.181741	
1.01325	0.262739	0.001274	0.737261	0.169851	
1.01325	0.528662	0.021231	0.471338	0.157537	
1.01325	0.794586	0.018259	0.205414	0.160934	
1.01325	0.977707	0.081953	0.022293	0.070913	
1.01325	1	0.12017	0	0.000425	
