Adsorption isotherm of Formaldehyde, Water on Molecular sieves 3A
DOI: 10.1021/acs.iecr.1c02778
Article source: Figure 4 (top)
Adsorbate Formaldehyde: InChIKey WSFSSNUMVMOOMR-UHFFFAOYSA-N
Adsorbate Water: InChIKey XLYOFNOQVPJJNP-UHFFFAOYSA-N
Kind: experiment
Temperature: 313 K
Tabular data in the source: 0
pressure (bar)	Formaldehyde fraction	Formaldehyde uptake (g/g)	Water fraction	Water uptake (g/g)	total uptake (g/g)
1.01325	0	0.001333	1	0.181333	
1.01325	0.098906	0.022222	0.901094	0.163111	
1.01325	0.201563	0.023111	0.798438	0.139111	
1.01325	0.277031	0.063111	0.722969	0.102667	
