Adsorption isotherm of Formaldehyde, Water on Molecular sieves 3A
DOI: 10.1021/acs.iecr.1c02778
Article source: Figure 4 (top)
Adsorbate Formaldehyde: InChIKey WSFSSNUMVMOOMR-UHFFFAOYSA-N
Adsorbate Water: InChIKey XLYOFNOQVPJJNP-UHFFFAOYSA-N
Kind: experiment
Temperature: 295 K
Tabular data in the source: 0
pressure (bar)	Formaldehyde fraction	Formaldehyde uptake (g/g)	Water fraction	Water uptake (g/g)	total uptake (g/g)
1.01325	0	0.001778	1	0.181778	
1.01325	0.080625	0.012444	0.919375	0.182222	
1.01325	0.145781	0.018667	0.854219	0.165333	
1.01325	0.199687	0.037333	0.800312	0.157778	
1.01325	0.221719	0.090222	0.778281	0.120444	
1.01325	0.224531	0.16	0.775469	0.067556	
