Adsorption isotherm of Methane, Water on Molecular sieves 3A
DOI: 10.1021/acs.iecr.1c02778
Article source: Figure 4 (bottom)
Adsorbate Methane: InChIKey VNWKTOKETHGBQD-UHFFFAOYSA-N
Adsorbate Water: InChIKey XLYOFNOQVPJJNP-UHFFFAOYSA-N
Kind: experiment
Temperature: 295 K
Tabular data in the source: 0
pressure (bar)	Methane fraction	Methane uptake (g/g)	Water fraction	Water uptake (g/g)	total uptake (g/g)
1.01325	0	0.000849	1	0.181741	
1.01325	0.095541	0.006369	0.904459	0.170276	
1.01325	0.323248	0.002123	0.676752	0.168577	
1.01325	0.797771	0.019533	0.202229	0.158386	
1.01325	0.94586	0.036093	0.05414	0.108705	
1.01325	0.996815	0.121444	0.003185	0.000849	
