Adsorption isotherm of 2-Propanol, Water on Molecular sieves 3A
DOI: 10.1021/acs.iecr.1c02778
Article source: Figure 3
Adsorbate 2-Propanol: InChIKey KFZMGEQAYNKOFK-UHFFFAOYSA-N
Adsorbate Water: InChIKey XLYOFNOQVPJJNP-UHFFFAOYSA-N
Kind: experiment
Temperature: 313 K
Tabular data in the source: 0
pressure (bar)	2-Propanol fraction	2-Propanol uptake (g/g)	Water fraction	Water uptake (g/g)	total uptake (g/g)
1.01325			9e-06	0.000396	
1.01325			0.000112	0.030191	
1.01325			0.001796	0.147792	
