Adsorption isotherm of Methane, Formaldehyde on Molecular sieves 3A
DOI: 10.1021/acs.iecr.1c02778
Article source: Figure 4 (middle)
Adsorbate Methane: InChIKey VNWKTOKETHGBQD-UHFFFAOYSA-N
Adsorbate Formaldehyde: InChIKey WSFSSNUMVMOOMR-UHFFFAOYSA-N
Kind: experiment
Temperature: 295 K
Tabular data in the source: 0
pressure (bar)	Methane fraction	Methane uptake (g/g)	Formaldehyde fraction	Formaldehyde uptake (g/g)	total uptake (g/g)
1.01325	1	0.120127	0	0.000953	
1.01325	0.851375	0.121398	0.148625	0.005403	
1.01325	0.747423	0.113453	0.252577	0.007309	
1.01325	0.628866	0.081038	0.371134	0.037182	
1.01325	0.469931	0.069915	0.530069	0.076907	
