Adsorption isotherm of Hydrogen on C324Cr9Cu27O180
DOI: 10.1016/j.micromeso.2012.07.036
Adsorbate Hydrogen: InChIKey UFHFLCQGNIYNRP-UHFFFAOYSA-N
Temperature: 77 K
Tabular data in the source: 0
pressure (bar)	uptake (cm3(STP)/g)
0.00378788	0.268341
0.0189394	0.766379
0.0340909	1.22606
0.0568182	1.99229
0.0814394	2.56668
0.0984848	3.103
0.121212	3.60074
0.142045	4.06021
0.155303	4.36654
0.176136	4.7493
0.193182	5.17055
0.206439	5.59195
0.225379	5.89806
0.244318	6.28089
0.261364	6.62543
0.282197	7.04654
0.308712	7.5825
0.333333	8.04182
0.367424	8.65419
0.401515	9.26657
0.435606	9.76388
0.471591	10.4145
0.515152	10.7964
0.560606	11.2549
0.61553	11.7898
0.672348	12.2095
0.744318	12.6287
0.816288	13.0095
0.897727	13.2748
0.945076	13.3497
0.998106	13.5395
