Adsorption isotherm of Nitrogen on C324Cr9Cu27O180
DOI: 10.1016/j.micromeso.2012.07.036
Adsorbate Nitrogen: InChIKey IJGRMHOSHXDMSA-UHFFFAOYSA-N
Temperature: 77 K
Tabular data in the source: 0
pressure (bar)	uptake (cm3(STP)/g)
0.00213306	69.4534
0.00421563	118.328
0.00593218	18.0064
0.00652539	259.807
0.00829874	182.637
0.00904972	488.746
0.0106337	334.405
0.0108862	437.299
0.0131139	545.338
0.0171844	604.502
0.0231607	640.514
0.0369877	676.527
0.0547022	697.106
0.0723852	704.823
0.0979251	715.113
0.117558	717.685
0.133272	722.83
0.14898	725.402
0.168613	727.974
0.198072	735.691
0.231443	738.264
0.268753	745.981
0.29623	745.981
0.333533	751.125
0.368868	753.698
0.398308	753.698
0.429717	756.27
0.467014	758.842
0.494497	761.415
0.547496	763.987
0.580861	763.987
0.594593	761.415
0.643679	769.132
0.659374	766.559
0.680963	766.559
0.730036	769.132
0.751638	774.277
0.771265	774.277
0.798736	771.704
0.818375	776.849
