Adsorption isotherm of Nitrogen on VO@Py-2,3-DHPh COF
DOI: 10.1039/c4cc01825g
Article source: Figure 2e
Adsorbate Nitrogen: InChIKey IJGRMHOSHXDMSA-UHFFFAOYSA-N
Kind: experiment
Temperature: 77 K
Tabular data in the source: 0
pressure (bar)	uptake (cm3(STP)/g)
0.00652	197.759
0.005747	162.449
0.005747	136.879
0.005747	112.641
0.003041	85.7403
0.003041	60.1708
0.003041	34.6014
0.002549	6.12632
0.024688	232.054
0.040382	264.343
0.079789	287.003
0.08106	253.895
0.119393	301.696
0.122486	264.27
0.16395	292.853
0.166166	262.291
0.204941	299.802
0.213498	269.461
0.248193	308.194
0.255728	273.741
0.292569	313.202
0.296108	277.511
0.33406	309.65
0.342779	276.99
0.384569	307.647
0.384569	274.741
0.42709	285.192
0.438687	322.524
0.469611	285.639
0.488295	322.778
0.510762	285.841
0.537902	318.351
0.560451	286.531
0.58259	319.778
0.609157	327.798
0.614153	291.509
0.640726	309.828
0.647039	337.173
0.659486	293.492
0.692137	331.491
0.712431	304.466
0.741745	334.687
0.772051	317.016
0.790992	350.768
0.819674	327.798
0.842279	362.415
0.868921	337.173
0.893815	401.31
0.922266	382.528
0.943062	465.233
0.947392	433.378
0.97445	504.744
0.97878	612.897
0.990686	581.858
0.996097	671.402
1.00047	788.9
