Adsorption isotherm of Nitrogen on Py-3,3'-BPyPh COF
DOI: 10.1039/c4cc01825g
Article source: Figure 2d
Adsorbate Nitrogen: InChIKey IJGRMHOSHXDMSA-UHFFFAOYSA-N
Kind: experiment
Temperature: 77 K
Tabular data in the source: 0
pressure (bar)	uptake (cm3(STP)/g)
0.007085	250.562
0.005732	206.454
0.004399	169.165
0.004399	131.876
0.004399	94.5877
0.004399	57.299
0.004399	20.0102
0.013308	330.7
0.028752	374.184
0.050645	407.946
0.070958	456.615
0.107242	522.385
0.10168	473.473
0.128785	620.242
0.166667	652.832
0.2033	665.848
0.242432	678.087
0.279065	685.951
0.3183	693.772
0.35483	715.123
0.392712	731.027
0.430594	737.445
0.471428	741.414
0.505006	745.385
0.547488	754.778
0.660143	757.363
0.693515	766.515
0.722829	757.637
0.749286	776.291
0.772136	760.951
0.800848	778.013
0.874774	792.515
0.914208	808.598
0.937134	802.383
0.95337	830.723
0.16532	679.79
0.213316	685.039
0.24798	692.913
0.287976	698.163
0.386635	742.782
0.445297	753.281
0.493293	761.155
0.565287	749.344
0.597284	761.155
0.613283	753.281
0.639947	771.654
0.815933	776.903
0.850597	797.9
0.981253	850.394
1.01592	960.63
1.00258	947.507
1.00258	902.887
0.978586	889.764
0.991918	876.64
0.010666	291.339
