Adsorption isotherm of Nitrogen on Py-DHPh COF
DOI: 10.1039/c4cc01825g
Article source: Figure 2a
Adsorbate Nitrogen: InChIKey IJGRMHOSHXDMSA-UHFFFAOYSA-N
Kind: experiment
Temperature: 77 K
Tabular data in the source: 0
pressure (bar)	uptake (cm3(STP)/g)
0.008594	216.332
0.003844	161.377
0.005646	119.605
0.005646	82.3655
0.005646	45.1256
0.006321	12.2082
0.013302	292.948
0.007447	250.832
0.011824	335.2
0.028038	373.327
0.043473	438.661
0.061682	493.47
0.066546	435.394
0.096272	505.25
0.134104	517.372
0.171937	528.658
0.209769	535.815
0.247602	542.351
0.285434	546.645
0.361099	557.971
0.402175	561.459
0.436764	564.562
0.512429	574.14
0.522158	559.438
0.550262	589.584
0.564074	567.359
0.597656	583.405
0.62998	573.602
0.645143	596.008
0.717806	597.468
0.727534	582.314
0.754963	609.013
0.772528	592.222
0.801127	612.564
0.861569	636.578
0.87454	616.21
0.903816	659.845
0.925885	634.45
0.944801	733.376
0.974076	785.648
0.974977	695.408
0.966419	655.73
0.998307	920.576
0.996145	746.169
1.00155	786.956
1.00695	860.549
0.336862	566.186
0.384795	576.671
0.467347	566.186
0.667067	574.05
0.824181	605.505
1.01591	938.401
