Adsorption isotherm of Nitrogen on Py-2,2'-BPyPh COF
DOI: 10.1039/c4cc01825g
Article source: Figure 2c
Adsorbate Nitrogen: InChIKey IJGRMHOSHXDMSA-UHFFFAOYSA-N
Kind: experiment
Temperature: 77 K
Tabular data in the source: 0
pressure (bar)	uptake (cm3(STP)/g)
0.010557	256.932
0.010557	218.578
0.010557	181.137
0.005918	146.892
0.055327	396.277
0.083369	429.401
0.100392	484.957
0.125452	598.888
0.163335	643.782
0.199968	654.126
0.23785	663.76
0.275733	669.24
0.314031	674.122
0.351081	677.809
0.389379	682.892
0.543915	712.241
0.653879	724.75
0.670791	700.745
0.69539	727.75
0.806084	759.554
0.811496	730.424
0.845216	769.564
0.899888	826.735
0.920633	790.086
0.93777	844.421
0.943182	918.643
0.980614	1061.49
0.980245	928.587
0.987132	999.426
0.997751	1177.89
1.00632	1069.75
0.866595	759.055
0.591951	721.26
0.615949	705.512
0.551955	696.063
0.330639	689.764
0.282643	686.614
0.16532	658.268
0.197317	670.866
0.114657	500.787
0.23998	680.315
0.383968	700.787
0.48796	711.811
0.503959	702.362
0.437297	702.362
0.455962	689.764
0.746605	743.307
0.759937	733.858
0.709275	714.961
1.01058	1206.3
0.031997	371.654
0.013332	333.858
0.010666	292.913
