Adsorption isotherm of Nitrogen on Py-2,3-DHPh COF
DOI: 10.1039/c4cc01825g
Article source: Figure 2b
Adsorbate Nitrogen: InChIKey IJGRMHOSHXDMSA-UHFFFAOYSA-N
Kind: experiment
Temperature: 77 K
Tabular data in the source: 0
pressure (bar)	uptake (cm3(STP)/g)
0.014161	317.316
0.014508	283.331
0.009766	246.977
0.009766	209.737
0.009766	172.498
0.009766	135.258
0.009766	98.0178
0.009766	60.7779
0.01067	18.218
0.030274	385.378
0.040821	474.304
0.06962	526.647
0.107553	543.43
0.119047	526.277
0.144992	554.118
0.180461	557.804
0.218393	564.277
0.256326	569.115
0.292	573.772
0.33219	578.064
0.37238	581.752
0.407603	584.841
0.445987	601.491
0.46405	580.954
0.49295	603.101
0.514265	586.57
0.548945	611.244
0.548945	582.77
0.586878	609.614
0.61413	596.939
0.662742	607.045
0.700674	619.709
0.72235	603.527
0.806884	644.026
0.81989	621.53
0.844521	651.812
0.876487	650.41
0.89756	693.068
0.921945	672.576
0.939105	776.443
0.948588	721.247
0.973876	894.723
0.964845	709.262
0.978663	769.045
0.990885	832.176
0.999963	968.79
1.00684	890.696
1.02445	971.604
0.736909	639.581
0.760939	621.232
0.638121	621.232
0.331075	600.262
0.280346	595.02
0.240296	584.535
0.194907	581.914
0.162868	571.429
0.117478	566.186
0.387144	602.883
0.02136	352.556
0.03204	398.427
