Adsorption isotherm of Nitrogen on CAA-COF-2
DOI: 10.1039/c8ce01397g
Article source: Figure S17c
Adsorbate Nitrogen: InChIKey IJGRMHOSHXDMSA-UHFFFAOYSA-N
Kind: experiment
Temperature: 313 K
Tabular data in the source: 0
pressure (bar)	uptake (mmol/g)
1.01108	0.057273
0.959566	0.053951
0.907061	0.05189
0.850594	0.048814
0.793137	0.044969
0.743604	0.042416
0.690109	0.039125
0.636614	0.035895
0.582129	0.032819
0.526652	0.029281
0.473157	0.026205
0.419662	0.022975
0.367158	0.019746
0.316041	0.016885
0.257592	0.013348
0.208258	0.011071
0.152584	0.007657
0.117515	0.005596
0.088786	0.003596
0.074917	0.003135
0.063029	0.002212
0.04916	0.001751
0.035291	0.001136
0.022412	0.000828
0.007553	0.000367
