Adsorption isotherm of Nitrogen on CAA-COF-1
DOI: 10.1039/c8ce01397g
Article source: Figure S17a
Adsorbate Nitrogen: InChIKey IJGRMHOSHXDMSA-UHFFFAOYSA-N
Kind: experiment
Temperature: 273 K
Tabular data in the source: 0
pressure (bar)	uptake (mmol/g)
1.00314	0.312598
0.958881	0.295875
0.904626	0.279153
0.850371	0.262988
0.796117	0.24738
0.744717	0.23233
0.689035	0.218952
0.636208	0.201672
0.57767	0.187737
0.529126	0.170457
0.473444	0.15262
0.422045	0.13757
0.364934	0.120847
0.31068	0.104125
0.25928	0.086845
0.207881	0.070123
0.152199	0.051728
0.097944	0.035006
0.089377	0.031104
0.077955	0.027759
0.069389	0.023857
0.059395	0.019398
0.046545	0.016054
0.035123	0.013266
0.025128	0.010479
0.015134	0.007692
0.007995	0.004905
