Adsorption isotherm of Nitrogen on TpBD
DOI: 10.1039/c8ce01397g
Article source: Figure S17b
Adsorbate Nitrogen: InChIKey IJGRMHOSHXDMSA-UHFFFAOYSA-N
Kind: experiment
Temperature: 293 K
Tabular data in the source: 0
pressure (bar)	uptake (mmol/g)
1.01214	0.098532
0.956429	0.093397
0.906429	0.08762
0.849286	0.082805
0.796429	0.07767
0.742143	0.071893
0.690714	0.067079
0.636429	0.062264
0.583571	0.057771
0.529286	0.052315
0.472143	0.046538
0.420714	0.041403
0.366429	0.036909
0.310714	0.03049
0.259286	0.025355
0.200714	0.020541
0.152143	0.015406
0.103571	0.010591
0.090714	0.009308
0.079286	0.008345
0.065	0.007061
0.047857	0.006098
0.036429	0.004493
0.023571	0.00321
0.013571	0.002247
0.005	0.001605
