Adsorption isotherm of Nitrogen on TpBD
DOI: 10.1039/c8ce01397g
Article source: Figure S8b
Adsorbate Nitrogen: InChIKey IJGRMHOSHXDMSA-UHFFFAOYSA-N
Kind: experiment
Temperature: 77 K
Tabular data in the source: 0
pressure (bar)	uptake (cm3(STP)/g)
0.697982	232.641
0.717696	237.376
0.748901	243.492
0.768615	249.533
0.795798	256.169
0.827756	267.409
0.84747	276.993
0.926324	334.668
0.95918	386.691
0.977052	467.805
0.896613	310.388
0.872194	289.932
0.669659	225.009
0.645239	221.451
0.619384	217.005
0.592092	212.558
0.570546	209.89
0.543254	205.443
0.510216	201.885
0.485797	198.328
0.461378	194.771
0.436959	191.213
0.41254	186.766
0.383811	183.209
0.356519	180.541
0.329227	177.873
0.303372	174.315
0.281825	170.758
0.254533	168.979
0.234424	163.643
0.205695	160.975
0.17984	157.417
0.155421	152.081
0.128129	149.413
0.096527	144.077
0.077854	140.519
0.051998	132.515
0.022983	114.906
0.012928	103.344
0.01063	85.5567
0.00632	70.4376
0.003447	53.5397
0.004884	41.9779
0.003447	28.6375
0.004884	16.1864
0.002011	0.177873
0.966997	468.694
0.955506	440.235
0.92965	380.647
0.101325	183.667
0.126656	187.735
0.151987	191.804
0.177319	195.872
0.20265	197.907
0.227981	200.958
0.253312	204.01
0.278644	206.044
0.303975	209.095
0.332754	213.214
0.358085	215.248
0.383416	217.283
0.408747	220.334
0.434079	223.386
0.45941	226.437
0.486465	229.488
0.511796	234.574
0.537127	237.626
0.568204	242.456
0.590088	244.44
0.615419	247.491
0.640751	250.543
0.66838	255.934
0.693711	260.003
0.720192	264.527
0.745523	270.63
0.771644	276.592
0.796063	284.596
0.807555	289.932
0.836283	298.826
0.862139	313.945
0.895176	338.847
0.931087	379.758
