Adsorption isotherm of Carbon Dioxide on CAA-COF-1
DOI: 10.1039/c8ce01397g
Article source: Figure 3a/S15a
Adsorbate Carbon Dioxide: InChIKey CURLTUGMZLYLDI-UHFFFAOYSA-N
Kind: experiment
Temperature: 273 K
Tabular data in the source: 0
pressure (bar)	uptake (mmol/g)
0.004771	0.353581
0.092041	1.83924
0.123969	2.15103
0.298158	3.32848
0.330086	3.51076
0.357164	3.63511
0.389092	3.79341
0.414231	3.90088
0.443249	4.02177
0.475177	4.14649
0.502255	4.25778
0.534183	4.3825
0.562231	4.47941
0.616953	4.66508
0.646456	4.75604
0.678384	4.86157
0.710312	4.9575
0.734481	5.03273
0.766409	5.12387
0.794457	5.20657
0.819595	5.28429
0.851523	5.36104
0.881027	5.44738
0.912955	5.51933
0.940518	5.59323
0.967022	5.65574
0.99612	5.71949
0.591174	4.56284
0.152279	2.35883
0.178952	2.57741
0.211688	2.76867
0.237148	2.96903
0.267459	3.15118
0.071048	1.59381
0.04195	1.13843
0.010427	0.510018
