Adsorption isotherm of Nitrogen on CAA-COF-1 w/ Base Treatment (5 days)
DOI: 10.1039/c8ce01397g
Article source: Figure S13c
Adsorbate Nitrogen: InChIKey IJGRMHOSHXDMSA-UHFFFAOYSA-N
Kind: experiment
Temperature: 77 K
Tabular data in the source: 0
pressure (bar)	uptake ()
0.99967	518.821
0.988522	485.754
0.964199	429.54
0.978387	417.966
0.937849	382.419
0.955078	369.193
0.927715	337.779
0.916567	358.446
0.896298	338.055
0.896298	315.665
0.872369	303.61
0.865331	321.98
0.847736	315.665
0.847032	291.554
0.818881	284.665
0.820289	304.758
0.797064	297.869
0.791433	277.776
0.768208	272.035
0.771727	289.258
0.747799	286.387
0.741465	264.572
0.716128	261.128
0.724574	276.628
0.690792	250.22
0.69783	277.202
0.673901	271.461
0.661937	249.646
0.634489	245.628
0.650676	267.443
0.628859	265.721
0.607745	242.757
0.602819	261.128
0.585928	237.017
0.580297	258.832
0.557072	232.424
0.554961	255.961
0.530329	254.239
0.530329	231.276
0.504992	226.109
0.509215	250.22
0.482471	239.313
0.478248	224.387
0.45432	216.924
0.456431	227.831
0.435317	224.387
0.428279	214.628
0.412092	222.091
0.402943	212.905
0.386756	218.646
0.378311	211.183
0.36705	216.35
0.350863	204.868
0.338899	212.905
0.327638	204.868
0.312858	212.331
0.296671	199.701
0.291041	209.461
0.271335	196.257
0.26852	206.016
0.243184	193.961
0.243184	204.868
0.217143	201.998
0.214328	189.368
0.191807	186.498
0.198141	199.701
0.17562	195.683
0.161544	183.053
0.137616	180.757
0.153099	191.664
0.127059	188.794
0.115094	176.738
0.094685	175.59
0.104538	185.35
0.065829	169.849
0.039085	160.09
0.015157	140.571
0.008119	126.793
0.005304	118.756
0.009526	134.831
0.0046	113.016
0.005585	106.701
0.003192	97.5154
0.004178	88.9042
0.004178	82.0153
0.004178	75.7004
0.004178	69.9596
0.004178	64.7929
0.003474	57.9039
0.00277	50.4409
0.002066	43.5519
0.002066	35.5148
0.003474	28.6259
0.003474	21.7369
0.003474	14.848
0.002066	7.38495
