Adsorption isotherm of Methane on CAA-COF-2
DOI: 10.1039/c8ce01397g
Article source: Figure S16b
Adsorbate Methane: InChIKey VNWKTOKETHGBQD-UHFFFAOYSA-N
Kind: experiment
Temperature: 298 K
Tabular data in the source: 0
pressure (bar)	uptake (mmol/g)
0.140758	0.063889
0.165897	0.073641
0.191035	0.083817
0.216173	0.094417
0.241311	0.102048
0.267807	0.114239
0.292945	0.124839
0.318084	0.133742
0.343222	0.142646
0.36836	0.151974
0.393498	0.160878
0.418636	0.169782
0.44649	0.180381
0.471628	0.189709
0.496767	0.197341
0.521905	0.206669
0.547043	0.214725
0.572181	0.223629
0.597319	0.232108
0.626531	0.244299
0.651669	0.253203
0.676807	0.261682
0.701945	0.269738
0.727084	0.278642
0.752222	0.287546
0.77736	0.295602
0.802498	0.305354
0.830352	0.314703
0.85549	0.322759
0.880628	0.330815
0.906446	0.338997
0.932263	0.346905
0.957401	0.356656
0.982539	0.364712
1.00768	0.373192
1.03281	0.382096
1.05795	0.390576
0.10964	0.049809
0.084182	0.036927
0.058724	0.031202
0.03666	0.016889
0.019688	0.015458
