Adsorption isotherm of Carbon Dioxide on CAA-COF-2
DOI: 10.1039/c8ce01397g
Article source: Figure S15c
Adsorbate Carbon Dioxide: InChIKey CURLTUGMZLYLDI-UHFFFAOYSA-N
Kind: experiment
Temperature: 323 K
Tabular data in the source: 0
pressure (bar)	uptake (mmol/g)
0.125023	0.349157
0.154185	0.403632
0.183347	0.45266
0.212509	0.498056
0.241672	0.543452
0.270834	0.590664
0.299996	0.634245
0.329158	0.683273
0.358321	0.718552
0.387483	0.76317
0.416645	0.801303
0.445807	0.843067
0.47497	0.877568
0.504132	0.912069
0.533294	0.950202
0.562456	0.984703
0.591619	1.01739
0.620781	1.05007
0.649943	1.08458
0.679105	1.11544
0.708268	1.14813
0.73743	1.18081
0.766592	1.20805
0.795754	1.23892
0.824916	1.26979
0.854079	1.29703
0.883241	1.3279
0.912403	1.35332
0.941565	1.38237
0.970728	1.41324
0.99989	1.43867
0.099219	0.278561
0.068315	0.212931
0.035784	0.132718
0.006506	0.052504
