Adsorption isotherm of Nitrogen on TpBD
DOI: 10.1039/c8ce01397g
Article source: Figure 3a/S17a
Adsorbate Nitrogen: InChIKey IJGRMHOSHXDMSA-UHFFFAOYSA-N
Kind: experiment
Temperature: 273 K
Tabular data in the source: 0
pressure (bar)	uptake (mmol/g)
1.0121	0.149229
0.952614	0.1411
0.902048	0.133358
0.853465	0.125616
0.795958	0.118649
0.738451	0.109358
0.687885	0.102778
0.632361	0.092713
0.579812	0.084584
0.527262	0.07723
0.477687	0.069488
0.417206	0.06252
0.371597	0.054391
0.312107	0.045101
0.261541	0.03852
0.205026	0.030391
0.152476	0.021875
0.098936	0.013746
0.085055	0.013359
0.072165	0.01065
0.059276	0.009488
0.047378	0.007166
0.038454	0.005617
0.028539	0.004069
0.021599	0.003295
0.012675	0.002134
0.004743	0.001359
