Adsorption isotherm of Nitrogen on CAA-COF-2 w/ Acid Treatment (5 days)
DOI: 10.1039/c8ce01397g
Article source: Figure S14b
Adsorbate Nitrogen: InChIKey IJGRMHOSHXDMSA-UHFFFAOYSA-N
Kind: experiment
Temperature: 77 K
Tabular data in the source: 0
pressure (bar)	uptake ()
0.999302	488.421
0.994199	472.157
0.989663	459.553
0.985694	450.202
0.974354	408.324
0.963581	394.093
0.961313	386.368
0.955076	379.456
0.979457	388.808
0.95054	348.962
0.942035	366.445
0.935231	359.534
0.92786	335.545
0.917087	345.71
0.909716	341.237
0.895541	336.358
0.885902	332.292
0.874562	327.413
0.868325	326.194
0.856985	324.161
0.844511	322.941
0.824099	318.469
0.815027	316.842
0.799718	314.403
0.788378	313.996
0.766832	309.524
0.754925	309.117
0.742451	307.897
0.894974	318.875
0.872294	311.15
0.847913	304.238
0.819563	299.359
0.79745	296.92
0.773069	295.293
0.742451	290.414
0.732245	306.678
0.721472	304.238
0.715802	304.238
0.699359	304.238
0.685751	301.799
0.667607	300.579
0.656267	300.172
0.646628	299.766
0.631319	298.139
0.614309	296.513
0.596732	296.513
0.589929	295.7
0.719771	287.568
0.692555	283.909
0.663638	280.656
0.641525	280.656
0.613742	279.437
0.588228	276.184
0.565548	289.195
0.581991	292.041
0.546837	290.008
0.524157	288.788
0.511116	287.975
0.503178	286.349
0.494106	283.909
0.481632	282.283
0.473127	280.656
0.44988	279.843
0.434004	278.217
0.560445	275.777
0.5406	272.525
0.513384	270.898
0.486735	266.833
0.458952	266.019
0.433437	263.58
0.409056	259.107
0.416994	273.744
0.402252	273.744
0.389778	272.118
0.377304	272.118
0.360294	268.865
0.342717	268.865
0.331377	268.865
0.324573	268.459
0.304728	266.833
0.281481	264.393
0.263337	264.393
0.384108	259.921
0.356325	256.261
0.335346	255.855
0.305295	253.415
0.27978	250.976
0.255399	248.536
0.229884	245.284
0.231585	261.547
0.205503	259.107
0.201534	245.69
0.178287	254.228
0.171483	239.591
0.151071	252.602
0.145968	237.152
0.131793	245.284
0.12669	236.339
0.110247	231.053
0.10401	228.207
0.095505	223.735
0.088701	219.669
0.082464	215.603
0.076794	211.944
0.043341	190.395
0.022929	170.066
0.014991	147.297
0.009321	137.539
0.006486	129.814
0.005919	121.682
0.004899	112.331
0.003765	104.199
0.003765	96.0675
0.002064	88.3424
0.002064	82.2437
0.002064	76.1449
0.002064	69.6396
0.00093	62.3211
0.00093	56.2224
0.002177	50.5302
0.001043	43.2117
0.001043	38.7393
0.00161	30.201
0.000476	25.322
0.000476	18.4101
0.00059	11.4982
