Adsorption isotherm of Nitrogen on TpPA-1
DOI: 10.1039/c8ce01397g
Article source: Figure S17a
Adsorbate Nitrogen: InChIKey IJGRMHOSHXDMSA-UHFFFAOYSA-N
Kind: experiment
Temperature: 273 K
Tabular data in the source: 0
pressure (bar)	uptake (mmol/g)
1.01313	0.228986
0.95317	0.221182
0.904626	0.203344
0.850371	0.193311
0.797544	0.18495
0.74329	0.171014
0.69189	0.159309
0.633352	0.147603
0.583381	0.13534
0.527698	0.121405
0.474872	0.110814
0.420617	0.099108
0.366362	0.08573
0.309252	0.072352
0.25928	0.060647
0.206453	0.048384
0.152199	0.035563
0.099372	0.024972
0.082239	0.02107
0.070817	0.018283
0.057967	0.016054
0.047973	0.013824
0.039406	0.011594
0.029412	0.009365
0.019417	0.007692
0.012279	0.00602
