Adsorption isotherm of Methane on TpPA-1
DOI: 10.1039/c8ce01397g
Article source: Figure S16a
Adsorbate Methane: InChIKey VNWKTOKETHGBQD-UHFFFAOYSA-N
Kind: experiment
Temperature: 273 K
Tabular data in the source: 0
pressure (bar)	uptake (mmol/g)
0.014284	0.031625
0.039416	0.05882
0.064549	0.079834
0.089681	0.100642
0.115651	0.122584
0.139946	0.148131
0.165078	0.172235
0.192654	0.197491
0.219416	0.221361
0.244548	0.244538
0.269681	0.264935
0.294813	0.289039
0.319946	0.310672
0.345078	0.332304
0.370211	0.355173
0.395343	0.374333
0.423733	0.399971
0.448866	0.420368
0.473998	0.43891
0.499131	0.458688
0.524263	0.480939
0.549396	0.498863
0.574528	0.518023
0.599661	0.538419
0.624793	0.559433
0.649926	0.578594
0.675058	0.5959
0.700191	0.613824
0.725323	0.63422
0.752084	0.652527
0.777217	0.670142
0.808051	0.69138
0.831554	0.708302
0.856687	0.726226
0.881819	0.744769
0.906952	0.758366
0.932084	0.777526
0.957217	0.793596
0.982349	0.81152
1.00748	0.828826
1.03261	0.844896
1.05775	0.860039
