Adsorption isotherm of Methane on CAA-COF-1
DOI: 10.1039/c8ce01397g
Article source: Figure S16a
Adsorbate Methane: InChIKey VNWKTOKETHGBQD-UHFFFAOYSA-N
Kind: experiment
Temperature: 273 K
Tabular data in the source: 0
pressure (bar)	uptake (mmol/g)
0.167522	0.207565
0.192654	0.236738
0.217787	0.265787
0.242919	0.292982
0.268052	0.322032
0.293184	0.346754
0.318317	0.374568
0.343449	0.39929
0.371025	0.427636
0.396158	0.45174
0.423733	0.478466
0.448866	0.505661
0.473998	0.530384
0.499131	0.55078
0.524263	0.578594
0.549396	0.60208
0.574528	0.627421
0.599661	0.647199
0.624793	0.671304
0.649926	0.694173
0.675058	0.716423
0.700191	0.738056
0.725323	0.758246
0.750456	0.779775
0.778031	0.80269
0.803164	0.824734
0.831554	0.847257
0.856687	0.869384
0.881819	0.889162
0.906952	0.912031
0.932084	0.930573
0.957217	0.952514
0.982349	0.971984
1.00748	0.990835
1.03261	1.01247
1.05775	1.03462
0.061314	0.087131
0.085748	0.114672
0.138689	0.177266
0.114255	0.147221
0.042988	0.059589
0.022626	0.034552
