Adsorption isotherm of Methane on CAA-COF-2
DOI: 10.1039/c8ce01397g
Article source: Figure S16c
Adsorbate Methane: InChIKey VNWKTOKETHGBQD-UHFFFAOYSA-N
Kind: experiment
Temperature: 313 K
Tabular data in the source: 0
pressure (bar)	uptake (mmol/g)
0.115702	0.029409
0.14084	0.035496
0.165978	0.041583
0.191116	0.04796
0.216254	0.054916
0.241393	0.061583
0.266531	0.06738
0.291669	0.074916
0.316807	0.080713
0.341945	0.08709
0.36912	0.094061
0.395616	0.100626
0.420755	0.107292
0.445893	0.114655
0.471031	0.121032
0.496169	0.127988
0.525381	0.134858
0.550519	0.141235
0.575657	0.146742
0.600795	0.153408
0.625933	0.162133
0.651072	0.16822
0.67621	0.174597
0.701348	0.180104
0.729202	0.187177
0.75434	0.192974
0.779478	0.198771
0.804616	0.205727
0.829755	0.211525
0.856929	0.217901
0.882068	0.223988
0.907206	0.230075
0.932344	0.236452
0.957482	0.241959
0.984657	0.248147
1.01115	0.255785
1.03629	0.262452
1.06143	0.267959
0.087576	0.022114
0.060421	0.015264
0.040054	0.010372
0.021385	0.010959
