Adsorption isotherm of Carbon Dioxide on CAA-COF-2
DOI: 10.1039/c8ce01397g
Article source: Figure 3a/S15a
Adsorbate Carbon Dioxide: InChIKey CURLTUGMZLYLDI-UHFFFAOYSA-N
Kind: experiment
Temperature: 273 K
Tabular data in the source: 0
pressure (bar)	uptake (mmol/g)
0.152704	1.11973
0.178246	1.21566
0.213582	1.32617
0.241846	1.40764
0.269517	1.48758
0.328308	1.64737
0.357043	1.71932
0.382586	1.7613
0.447574	1.90968
0.473116	1.96364
0.532647	2.07908
0.55819	2.14304
0.586925	2.18701
0.620066	2.23688
0.650458	2.3007
0.676	2.34268
0.707847	2.38829
0.73339	2.43626
0.765722	2.48681
0.795629	2.52878
0.827476	2.57439
0.853018	2.61636
0.879625	2.65034
0.910934	2.7063
0.939669	2.74228
0.969091	2.79518
0.991441	2.82916
0.500242	2.01275
0.415373	1.82149
0.298982	1.55738
0.011639	0.255009
0.044374	0.57377
0.063773	0.710383
0.095296	0.865209
0.121969	1.01093
