Adsorption isotherm of Nitrogen on TpPA-1
DOI: 10.1039/c8ce01397g
Article source: Figure S8a
Adsorbate Nitrogen: InChIKey IJGRMHOSHXDMSA-UHFFFAOYSA-N
Kind: experiment
Temperature: 77 K
Tabular data in the source: 0
pressure (bar)	uptake (cm3(STP)/g)
0.012968	200.313
0.026101	215.791
0.049109	225.658
0.072123	231.215
0.184848	243.04
0.207868	244.71
0.231312	245.961
0.2563	247.384
0.280516	249.13
0.364395	253.306
0.38628	254.064
0.411095	255.09
0.441016	256.48
0.462941	257.473
0.488851	258.632
0.570514	261.797
0.593282	262.758
0.61605	263.53
0.64746	265.553
0.671999	266.505
0.694767	267.103
0.723855	268.751
0.748052	270.073
0.772249	271.951
0.802767	273.242
0.824244	276.069
0.850561	279.15
0.87495	281.596
0.897968	284.604
0.920982	289.9
0.985164	333.195
0.998087	345.69
1.00237	365.822
0.975125	315.146
0.952143	299.18
0.956442	308.898
0.546725	261.008
0.529472	260.314
0.539527	267.256
0.309497	249.906
0.335378	249.905
0.105346	233.25
0.128348	236.026
0.158537	240.191
0.009083	183.269
0.004788	170.079
0.003369	156.89
-0.002362	143.006
-0.000911	133.981
-0.000887	117.32
-0.000877	110.378
0.002013	99.965
-0.00084	83.9984
-0.002267	77.0564
-0.000821	70.8085
-0.002244	61.0897
-0.002229	50.6767
-0.002221	45.123
-0.000772	36.7926
-0.000762	29.8505
-0.002184	18.7433
-0.002165	5.55344
0.101021	241.58
0.128338	242.968
0.151338	247.133
0.177217	248.521
0.203096	249.908
0.231852	250.602
0.256293	251.99
0.277859	253.378
0.30949	254.765
0.333932	255.459
0.355498	256.847
0.37994	257.541
0.394317	258.929
0.421636	258.928
0.45758	260.316
0.483458	262.398
0.515085	266.562
0.565405	269.338
0.589847	270.726
0.621477	272.113
0.650234	272.113
0.670363	272.806
0.693368	273.5
0.724997	275.582
0.749438	277.664
0.775317	279.052
0.799758	280.44
0.828511	283.216
0.852951	285.298
0.881702	289.462
0.904706	290.85
0.921951	297.098
