Adsorption isotherm of Nitrogen on CAA-COF-1
DOI: 10.1039/c8ce01397g
Article source: Figure 2a/S13a-c
Adsorbate Nitrogen: InChIKey IJGRMHOSHXDMSA-UHFFFAOYSA-N
Kind: experiment
Temperature: 77 K
Tabular data in the source: 0
pressure (bar)	uptake ()
0.091069	234.003
0.113162	239.424
0.141732	246.578
0.167063	248.374
0.192394	253.763
0.220424	258.303
0.248994	261.863
0.274326	265.456
0.299657	267.253
0.327687	271.222
0.353018	274.815
0.378349	282.001
0.402601	283.765
0.429552	285.561
0.454883	290.95
0.480214	296.372
0.506625	298.201
0.531956	301.794
0.558367	305.827
0.583698	309.42
0.60903	314.81
0.634361	318.402
0.661311	322.436
0.686643	327.826
0.711974	333.215
0.741623	339.927
0.766955	347.113
0.792286	354.299
0.817617	361.484
0.842948	372.263
0.86828	384.838
0.893611	399.209
0.931609	430.015
0.950501	469.709
0.97749	543.583
0.993683	611.945
1.00178	652.741
0.059876	223.828
0.036936	212.802
0.011296	187.443
0.005899	173.109
0.004549	158.775
0.0032	149.954
0.0032	138.928
0.00185	125.697
0.00185	116.876
0.00185	105.85
0.000501	93.7213
0.000501	83.7979
0.000501	72.7718
0.000501	60.6432
0.00185	47.4119
0.00185	35.2833
0.00185	23.1547
0.000501	9.92343
0.992334	643.92
0.989635	631.792
0.986936	616.355
0.969393	559.02
0.962646	543.583
0.946453	507.198
0.938356	491.761
0.931609	476.325
0.915416	456.478
0.904621	447.657
0.893825	436.631
0.885729	428.913
0.868186	417.887
0.860089	413.476
0.838498	401.348
0.827703	393.629
0.816908	390.322
0.806112	384.809
0.796666	380.398
0.785871	375.988
0.769677	372.68
0.760231	368.27
0.742689	363.859
0.718399	359.449
0.699507	355.038
0.676567	350.628
0.663072	347.32
0.654976	346.217
0.641481	344.012
0.630686	340.704
0.615842	338.499
0.603697	337.397
0.578058	332.986
0.54972	328.576
0.529478	326.371
0.506538	323.063
0.498442	317.55
0.482248	312.037
0.472802	305.421
0.45391	301.011
0.426922	296.6
0.40668	291.087
0.390487	289.985
0.375643	287.779
0.367547	286.677
0.355402	285.574
0.343257	285.574
0.329762	284.472
0.320316	282.266
0.305473	280.061
0.283882	278.959
0.26499	272.343
0.2407	270.138
0.21776	267.933
0.201566	264.625
0.185373	263.522
0.175927	261.317
0.163782	259.112
0.143541	256.907
0.1206	252.496
0.101708	248.086
