Adsorption isotherm of Nitrogen on CAA-COF-1
DOI: 10.1039/c8ce01397g
Article source: Figure S17c
Adsorbate Nitrogen: InChIKey IJGRMHOSHXDMSA-UHFFFAOYSA-N
Kind: experiment
Temperature: 313 K
Tabular data in the source: 0
pressure (bar)	uptake (mmol/g)
1.01227	0.121501
0.95806	0.116185
0.905278	0.10932
0.85107	0.103783
0.796862	0.096253
0.742653	0.091159
0.691298	0.084515
0.635663	0.078535
0.581455	0.071891
0.527247	0.065468
0.473039	0.059488
0.421683	0.052622
0.368902	0.046642
0.31612	0.039998
0.260485	0.03269
0.201997	0.026045
0.149215	0.019401
0.093581	0.012757
0.085021	0.010985
0.076462	0.009878
0.066476	0.008549
0.055064	0.00722
0.042225	0.005891
0.029387	0.004341
0.020827	0.003234
0.007989	0.001683
