Adsorption isotherm of Methane on TpBD
DOI: 10.1039/c8ce01397g
Article source: Figure S16b
Adsorbate Methane: InChIKey VNWKTOKETHGBQD-UHFFFAOYSA-N
Kind: experiment
Temperature: 298 K
Tabular data in the source: 0
pressure (bar)	uptake (mmol/g)
0.168325	0.064482
0.217764	0.082148
0.242902	0.090628
0.269716	0.099158
0.293178	0.109001
0.319154	0.118541
0.34513	0.127869
0.370269	0.136349
0.395407	0.144828
0.41783	0.153033
0.473537	0.173152
0.498675	0.18248
0.523813	0.189688
0.548952	0.198591
0.57409	0.205799
0.599228	0.215551
0.624366	0.226151
0.65222	0.235754
0.677358	0.243386
0.702496	0.251866
0.727635	0.259286
0.755488	0.267702
0.780627	0.27703
0.805765	0.284662
0.830903	0.295304
0.856041	0.303996
0.881179	0.312645
0.906318	0.321549
0.934929	0.330508
0.960067	0.342319
0.983769	0.351101
1.01026	0.359666
1.0354	0.369212
1.06054	0.379933
0.443992	0.162882
0.189409	0.074141
0.136796	0.05124
0.113035	0.044084
0.085879	0.034065
0.06721	0.022615
0.043449	0.015458
0.019688	0.011164
