Adsorption isotherm of Nitrogen on CAA-COF-2 w/ H2O Treatment (5 days)
DOI: 10.1039/c8ce01397g
Article source: Figure S14a
Adsorbate Nitrogen: InChIKey IJGRMHOSHXDMSA-UHFFFAOYSA-N
Kind: experiment
Temperature: 77 K
Tabular data in the source: 0
pressure (bar)	uptake (cm3(STP)/g)
1.00358	541.056
0.987244	526.368
0.962741	484.654
0.939872	445.29
0.979893	455.278
0.912101	414.152
0.95049	408.864
0.929254	385.951
0.900667	365.388
0.891682	386.539
0.869629	373.026
0.867996	349.525
0.84676	335.425
0.824707	347.763
0.79612	322.5
0.796937	337.187
0.82144	328.962
0.842676	357.163
0.769984	332.487
0.770801	316.624
0.741397	310.162
0.750381	325.437
0.727512	320.149
0.719344	307.224
0.690757	304.287
0.701375	316.037
0.662987	297.824
0.673605	310.749
0.651552	308.987
0.638484	297.236
0.627866	304.874
0.611531	292.536
0.605813	301.349
0.583761	291.361
0.580494	300.761
0.560074	288.424
0.558441	296.649
0.532304	297.236
0.532304	284.898
0.508618	280.786
0.510251	293.124
0.489015	290.186
0.482481	281.373
0.455528	273.148
0.462062	282.548
0.434292	282.548
0.430208	274.911
0.401621	269.623
0.412239	276.673
0.388553	276.673
0.362416	274.323
0.356699	266.098
0.377118	268.448
0.334646	263.16
0.343631	273.148
0.316677	269.623
0.305243	258.46
0.277473	256.11
0.294625	266.098
0.250519	251.41
0.267671	261.985
0.245619	261.398
0.220299	256.698
0.220299	249.06
0.196612	246.71
0.177827	253.173
0.172109	243.772
0.143523	237.897
0.198246	256.11
0.148423	249.647
0.124737	245.535
0.114936	233.785
0.103501	238.485
0.0937	227.909
0.061846	213.221
0.037343	196.183
0.010389	152.707
0.004672	140.369
0.003038	132.732
0.003038	125.094
0.003038	118.044
0.003038	110.994
0.002222	102.768
0.002222	95.7182
0.002222	87.493
0.001405	79.2677
0.000588	72.805
0.001405	66.9299
0.001405	60.4672
0.000588	52.8295
0.000588	45.1918
0.000588	36.379
0.000588	29.3288
0.000588	21.1036
0.001405	14.0534
0.001405	9.35326
0.002058	2.06806
