Adsorption isotherm of Nitrogen on TpBD
DOI: 10.1039/c8ce01397g
Article source: Figure S17c
Adsorbate Nitrogen: InChIKey IJGRMHOSHXDMSA-UHFFFAOYSA-N
Kind: experiment
Temperature: 313 K
Tabular data in the source: 0
pressure (bar)	uptake (mmol/g)
1.01108	0.06158
0.959566	0.059119
0.907061	0.056197
0.850594	0.053121
0.793137	0.049276
0.743604	0.046046
0.690109	0.042201
0.636614	0.038971
0.582129	0.035895
0.526652	0.032357
0.473157	0.029281
0.419662	0.026052
0.367158	0.022822
0.315644	0.019284
0.257196	0.015747
0.204692	0.012056
0.152187	0.008211
0.100674	0.005904
0.088786	0.004827
0.069964	0.003904
0.051141	0.003135
0.039253	0.002212
0.026375	0.001751
0.011515	0.001289
0.005571	0.00052
