Adsorption isotherm of Nitrogen on CAA-COF-1 w/ H2O Treatment (5 days)
DOI: 10.1039/c8ce01397g
Article source: Figure S13a
Adsorbate Nitrogen: InChIKey IJGRMHOSHXDMSA-UHFFFAOYSA-N
Kind: experiment
Temperature: 77 K
Tabular data in the source: 0
pressure (bar)	uptake ()
1.00522	657.305
0.997055	648.048
0.988892	634.825
0.985627	613.668
0.992157	610.362
0.966036	558.791
0.96277	545.568
0.975015	544.245
0.946444	505.898
0.94073	488.707
0.924405	473.5
0.948893	470.856
0.917058	462.261
0.91216	449.699
0.898283	439.781
0.891753	433.169
0.930119	432.508
0.897467	402.756
0.866448	413.334
0.841959	404.078
0.865631	386.227
0.842775	369.697
0.825633	391.516
0.818286	389.532
0.79543	384.904
0.779104	379.615
0.766043	370.359
0.746452	363.086
0.818286	362.425
0.794614	354.491
0.769309	346.557
0.740738	340.606
0.72278	358.458
0.715433	331.35
0.697475	353.829
0.687679	323.416
0.680332	346.557
0.664823	322.755
0.665639	345.234
0.65013	345.234
0.641967	343.251
0.630539	341.267
0.635436	318.788
0.618294	338.623
0.60605	311.515
0.597887	334.656
0.573398	331.35
0.58401	305.564
0.556256	304.903
0.551358	326.722
0.529318	326.061
0.528502	300.275
0.508911	322.094
0.497483	315.482
0.484422	312.837
0.47381	303.581
0.506462	296.969
0.48034	289.696
0.459117	286.391
0.450954	298.292
0.432995	294.325
0.426465	281.101
0.403609	279.118
0.408506	289.696
0.373406	275.812
0.384018	284.407
0.361978	284.407
0.346468	282.424
0.336672	282.424
0.32851	281.101
0.321979	280.44
0.354631	272.506
0.332591	270.523
0.303204	264.572
0.30647	276.473
0.283613	274.49
0.263206	271.845
0.269736	262.589
0.246064	258.622
0.241166	268.539
0.222391	265.894
0.217493	252.671
0.198719	262.589
0.185658	262.589
0.178311	261.927
0.166067	259.283
0.164434	246.059
0.194637	252.01
0.141578	255.316
0.137497	238.125
0.118722	250.688
0.11464	234.82
0.10158	245.398
0.090152	231.514
0.054235	221.596
0.039541	210.357
0.008359	186.555
0.004604	172.009
0.002971	159.447
0.002155	150.19
0.000522	141.595
0.000522	133
0.002971	126.388
0.002971	118.454
0.003788	110.52
0.001339	101.925
0.000522	95.9748
0.001339	88.0408
0.001339	81.4292
0.002971	76.1398
0.001339	69.5282
0.002155	62.9165
0.002155	54.3214
0.002155	42.4204
0.001175	34.4864
0.001175	27.8747
0.001502	21.2631
0.001175	13.9903
0.001175	9.36211
0.001175	3.41161
0.002155	49.6932
