Adsorption isotherm of Carbon Dioxide on CAA-COF-1
DOI: 10.1039/c8ce01397g
Article source: Figure S15c
Adsorbate Carbon Dioxide: InChIKey CURLTUGMZLYLDI-UHFFFAOYSA-N
Kind: experiment
Temperature: 323 K
Tabular data in the source: 0
pressure (bar)	uptake (mmol/g)
0.008374	0.140335
0.037536	0.352789
0.066698	0.565243
0.095861	0.754091
0.125023	0.915701
0.154185	1.06097
0.183347	1.20442
0.212509	1.33516
0.241672	1.45319
0.270834	1.57304
0.299996	1.69107
0.329158	1.7982
0.358321	1.89626
0.387483	1.99976
0.416645	2.09237
0.445807	2.19042
0.47497	2.28122
0.504132	2.37019
0.533294	2.45736
0.562456	2.54088
0.591619	2.61533
0.620781	2.70068
0.649943	2.78058
0.679105	2.85321
0.708268	2.92403
0.73743	3.00393
0.766592	3.07111
0.795754	3.14011
0.824916	3.20367
0.854079	3.27267
0.883241	3.33986
0.912403	3.40886
0.941565	3.47423
0.970728	3.5396
0.99989	3.60043
