Adsorption isotherm of Carbon Dioxide on TpPA-1
DOI: 10.1039/c8ce01397g
Article source: Figure S15b
Adsorbate Carbon Dioxide: InChIKey CURLTUGMZLYLDI-UHFFFAOYSA-N
Kind: experiment
Temperature: 298 K
Tabular data in the source: 0
pressure (bar)	uptake (mmol/g)
0.067716	0.465846
0.096898	0.589643
0.126079	0.70735
0.15526	0.823029
0.184441	0.934648
0.213623	1.028
0.242804	1.12745
0.271985	1.21877
0.301166	1.30198
0.330347	1.38924
0.359529	1.46839
0.38871	1.54348
0.417891	1.61857
0.447072	1.69163
0.476254	1.76266
0.505435	1.83369
0.534616	1.89864
0.563797	1.96155
0.592978	2.02446
0.62216	2.0894
0.651341	2.15029
0.680522	2.20914
0.709703	2.27205
0.738885	2.32482
0.768066	2.38164
0.797247	2.44253
0.826428	2.49123
0.855609	2.544
0.884791	2.60285
0.913972	2.65156
0.943153	2.70838
0.972334	2.75912
1.00152	2.79971
0.039388	0.317848
0.014974	0.154849
