Adsorption isotherm of Methane on TpPA-1
DOI: 10.1039/c8ce01397g
Article source: Figure S16c
Adsorbate Methane: InChIKey VNWKTOKETHGBQD-UHFFFAOYSA-N
Kind: experiment
Temperature: 313 K
Tabular data in the source: 0
pressure (bar)	uptake (mmol/g)
0.08893	0.034946
0.114068	0.044221
0.141243	0.053482
0.166382	0.063453
0.19152	0.072438
0.216658	0.081713
0.241796	0.091858
0.266934	0.101133
0.292073	0.110119
0.317211	0.119539
0.344386	0.128872
0.369524	0.138438
0.394662	0.148293
0.422516	0.158162
0.447654	0.166858
0.472792	0.176713
0.49793	0.186133
0.523069	0.194684
0.548207	0.203669
0.573345	0.212944
0.598483	0.22193
0.623621	0.230625
0.64876	0.24019
0.673898	0.248306
0.703788	0.259147
0.728926	0.268132
0.754065	0.277118
0.779203	0.286973
0.804341	0.295089
0.829479	0.303494
0.854617	0.31219
0.88315	0.321857
0.908288	0.330552
0.933426	0.338958
0.958565	0.347508
0.983703	0.356059
1.00884	0.364465
1.0367	0.373755
1.06183	0.383368
0.060421	0.025636
0.040054	0.018787
0.019688	0.010959
