Adsorption isotherm of Nitrogen on CAA-COF-2
DOI: 10.1039/c8ce01397g
Article source: Figure S17b
Adsorbate Nitrogen: InChIKey IJGRMHOSHXDMSA-UHFFFAOYSA-N
Kind: experiment
Temperature: 293 K
Tabular data in the source: 0
pressure (bar)	uptake (mmol/g)
1.01214	0.095451
0.955857	0.090829
0.905857	0.085052
0.848714	0.081265
0.795857	0.07613
0.741571	0.070352
0.690143	0.065538
0.635857	0.059954
0.583	0.05546
0.528714	0.050004
0.472143	0.044741
0.420714	0.039605
0.366429	0.03447
0.310714	0.029207
0.259286	0.023686
0.200714	0.018872
0.152143	0.013737
0.103571	0.009308
0.090714	0.008024
0.079286	0.007061
0.065	0.006291
0.047857	0.005328
0.036429	0.003723
0.023571	0.002439
0.013571	0.001476
0.005	0.000834
