Adsorption isotherm of Carbon Dioxide on TpBD
DOI: 10.1039/c8ce01397g
Article source: Figure 3a/S15a
Adsorbate Carbon Dioxide: InChIKey CURLTUGMZLYLDI-UHFFFAOYSA-N
Kind: experiment
Temperature: 273 K
Tabular data in the source: 0
pressure (bar)	uptake (mmol/g)
0.043162	0.318761
0.069835	0.428051
0.095296	0.546448
0.126819	0.64663
0.011639	0.173042
0.154704	0.746812
0.183802	0.846995
0.2129	0.910747
0.24321	0.983607
0.301406	1.14754
0.332929	1.20219
0.359602	1.25683
0.271096	1.06557
0.387488	1.32969
0.416586	1.41166
0.448109	1.44809
0.477207	1.52095
0.501455	1.57559
0.536615	1.63934
0.562076	1.67577
0.591174	1.73042
0.621484	1.78506
0.645732	1.8306
0.67968	1.86703
0.706353	1.92168
0.736663	1.97632
0.764549	2.03097
0.798497	2.0765
0.821532	2.12204
0.848206	2.14936
0.879728	2.21311
0.911251	2.25865
0.937924	2.30419
0.969447	2.34973
0.999758	2.37705
