Adsorption isotherm of Carbon Dioxide on TpBD
DOI: 10.1039/c8ce01397g
Article source: Figure S15b
Adsorbate Carbon Dioxide: InChIKey CURLTUGMZLYLDI-UHFFFAOYSA-N
Kind: experiment
Temperature: 298 K
Tabular data in the source: 0
pressure (bar)	uptake (mmol/g)
0.067716	0.218834
0.096898	0.281746
0.126079	0.340021
0.15526	0.404963
0.184441	0.461787
0.213623	0.516582
0.242804	0.575436
0.271985	0.626173
0.301166	0.676909
0.330347	0.723586
0.359529	0.774322
0.38871	0.81897
0.417891	0.861588
0.447072	0.908266
0.476254	0.948855
0.505435	0.991473
0.534616	1.03409
0.563797	1.07468
0.592978	1.10918
0.62216	1.14774
0.651341	1.1863
0.680522	1.22486
0.709703	1.26139
0.738885	1.30198
0.768066	1.33851
0.797247	1.37301
0.826428	1.40548
0.855609	1.44607
0.884791	1.47448
0.913972	1.51304
0.943153	1.54754
0.972334	1.58204
1.00325	1.61161
0.005208	0.04075
0.03776	0.130399
