Adsorption isotherm of Carbon Dioxide on TpPA-1
DOI: 10.1039/c8ce01397g
Article source: Figure S15c
Adsorbate Carbon Dioxide: InChIKey CURLTUGMZLYLDI-UHFFFAOYSA-N
Kind: experiment
Temperature: 323 K
Tabular data in the source: 0
pressure (bar)	uptake (mmol/g)
0.098118	0.386189
0.127281	0.457007
0.156443	0.535088
0.185605	0.609538
0.214767	0.682172
0.24393	0.751174
0.273092	0.820176
0.302254	0.883731
0.331416	0.941838
0.360579	1.00358
0.389741	1.06713
0.418903	1.12342
0.448065	1.17971
0.477228	1.23237
0.50639	1.28866
0.535552	1.34132
0.564714	1.3958
0.593876	1.44846
0.623039	1.4993
0.652201	1.54833
0.681363	1.60099
0.710525	1.64639
0.739688	1.6936
0.767549	1.73899
0.796711	1.78621
0.825873	1.83523
0.855035	1.88063
0.884198	1.92239
0.91336	1.96961
0.942522	2.01137
0.971684	2.05677
0.995986	2.09218
0.067339	0.275644
0.036435	0.166262
0.003904	0.035002
