Adsorption isotherm of Methane on TpBD
DOI: 10.1039/c8ce01397g
Article source: Figure S16c
Adsorbate Methane: InChIKey VNWKTOKETHGBQD-UHFFFAOYSA-N
Kind: experiment
Temperature: 313 K
Tabular data in the source: 0
pressure (bar)	uptake (mmol/g)
0.115702	0.030975
0.14084	0.037061
0.165978	0.043148
0.191116	0.049525
0.216254	0.056482
0.241393	0.063148
0.266531	0.068945
0.291669	0.076481
0.316807	0.082278
0.341945	0.088655
0.36912	0.095626
0.395616	0.102191
0.420755	0.108858
0.445893	0.114655
0.471031	0.121032
0.496169	0.127988
0.525381	0.134858
0.550519	0.141235
0.575657	0.146742
0.600795	0.153408
0.625933	0.159785
0.651072	0.165872
0.67621	0.172249
0.701348	0.177756
0.729202	0.184829
0.75434	0.190626
0.779478	0.196423
0.804616	0.203379
0.829755	0.209176
0.856929	0.215553
0.882068	0.22164
0.907206	0.227727
0.932344	0.234103
0.957482	0.239611
0.984657	0.245799
1.01115	0.253437
1.03629	0.260103
1.06143	0.265611
0.087576	0.023679
0.060421	0.01683
0.040054	0.011937
0.021385	0.010959
