Adsorption isotherm of Nitrogen on TpPA-1
DOI: 10.1039/c8ce01397g
Article source: Figure S17b
Adsorbate Nitrogen: InChIKey IJGRMHOSHXDMSA-UHFFFAOYSA-N
Kind: experiment
Temperature: 293 K
Tabular data in the source: 0
pressure (bar)	uptake (mmol/g)
1.00929	0.143786
0.959286	0.133837
0.900714	0.125813
0.847857	0.11811
0.742143	0.103025
0.796429	0.110728
0.687857	0.095322
0.633571	0.087299
0.579286	0.08088
0.527857	0.072535
0.475	0.06419
0.420714	0.056487
0.370714	0.049105
0.315	0.041403
0.262143	0.034021
0.207857	0.027281
0.150714	0.02022
0.102143	0.01348
0.085	0.010591
0.066429	0.008024
0.049286	0.006419
0.033571	0.005135
0.025	0.004172
0.016429	0.002568
0.003571	0.001605
