Adsorption isotherm of Nitrogen on CAA-COF-2 w/ Base Treatment (5 days)
DOI: 10.1039/c8ce01397g
Article source: Figure S14c
Adsorbate Nitrogen: InChIKey IJGRMHOSHXDMSA-UHFFFAOYSA-N
Kind: experiment
Temperature: 77 K
Tabular data in the source: 0
pressure (bar)	uptake ()
0.303975	225.089
0.329306	227.918
0.354637	229.333
0.379969	233.577
0.409893	237.978
0.435224	240.808
0.460555	243.638
0.485886	245.052
0.511218	247.882
0.536549	252.126
0.56188	254.956
0.587211	257.785
0.612543	259.2
0.638448	264.964
0.663779	269.209
0.691981	274.343
0.714442	279.112
0.739773	284.771
0.765104	291.845
0.792732	298.499
0.818063	305.573
0.843394	318.306
0.874036	336.478
0.896999	355.346
0.924268	388.889
0.973064	533.543
0.968759	532.495
0.958712	505.241
0.94149	451.782
0.951536	440.252
0.935749	442.348
0.930008	438.155
0.921397	428.721
0.914221	422.432
0.907045	415.094
0.892693	396.226
0.86686	368.973
0.855378	360.587
0.845332	352.201
0.823804	341.719
0.812322	335.43
0.800841	331.237
0.785053	328.092
0.764961	320.755
0.746303	314.465
0.733386	310.273
0.72334	308.176
0.711858	305.031
0.694636	302.935
0.686025	299.79
0.671673	295.597
0.660191	294.549
0.64871	291.405
0.635793	289.308
0.622876	287.212
0.61283	286.164
0.598478	284.067
0.584126	281.971
0.566903	279.874
0.54394	274.633
0.526718	273.585
0.510931	272.537
0.493708	269.392
0.470745	264.151
0.460699	263.103
0.450652	261.006
0.431995	257.862
0.419078	255.765
0.39755	253.669
0.374587	250.524
0.355929	248.428
0.345883	244.235
0.32866	243.187
0.304262	241.09
0.29278	238.994
0.271252	234.801
0.279864	221.174
0.258336	219.078
0.25403	229.56
0.232502	215.933
0.223891	223.27
0.203798	219.078
0.199493	215.933
0.205233	212.788
0.176529	209.644
0.14639	204.403
0.126297	201.258
0.109075	194.969
0.116251	196.017
0.099029	192.872
0.086112	190.776
0.081806	187.631
0.076066	184.486
0.053102	168.763
0.025834	145.702
0.013778	121.593
0.008037	110.063
0.005454	102.725
0.004019	94.3396
0.002583	84.9057
0.002583	76.5199
0.002583	67.086
0.002583	59.7484
0.002583	51.3627
0.001148	41.9287
0.001148	34.5912
0.002583	27.2537
0.001148	18.8679
0.001148	12.5786
