Adsorption isotherm of Nitrogen on TpPA-1
DOI: 10.1039/c8ce01397g
Article source: Figure S17c
Adsorbate Nitrogen: InChIKey IJGRMHOSHXDMSA-UHFFFAOYSA-N
Kind: experiment
Temperature: 313 K
Tabular data in the source: 0
pressure (bar)	uptake (mmol/g)
1.01108	0.084342
0.960556	0.079267
0.907061	0.074499
0.849604	0.070808
0.802053	0.064194
0.746576	0.060195
0.693081	0.056658
0.637605	0.052198
0.581138	0.046661
0.530615	0.04297
0.476129	0.038663
0.421644	0.034049
0.369139	0.029743
0.313663	0.024821
0.259177	0.020668
0.207664	0.016208
0.172	0.01344
0.097702	0.007903
0.082842	0.006673
0.066992	0.005596
0.054113	0.004827
0.041235	0.00375
0.027366	0.002674
0.012506	0.001751
0.00359	0.001443
