Adsorption isotherm of Nitrogen on CAA-COF-2
DOI: 10.1039/c8ce01397g
Article source: Figure 2b/S14a-c
Adsorbate Nitrogen: InChIKey IJGRMHOSHXDMSA-UHFFFAOYSA-N
Kind: experiment
Temperature: 77 K
Tabular data in the source: 0
pressure (bar)	uptake ()
0.036562	208.451
0.090126	242.336
0.111648	248.239
0.13843	253.849
0.165212	257.99
0.191994	262.042
0.218776	265.604
0.245558	268.81
0.26971	272.426
0.296492	275.632
0.323274	278.482
0.350056	280.619
0.370263	282.622
0.397045	284.759
0.423827	288.82
0.470993	294.975
0.497775	297.139
0.524557	300.3
0.551339	304.53
0.578121	306.935
0.604903	309.695
0.625767	313.792
0.652549	316.384
0.679331	319.456
0.706113	323.597
0.732895	327.337
0.759677	332.681
0.786459	339.36
0.813241	347.107
0.834763	354.898
0.86023	366.805
0.893587	386.46
0.915906	403.545
0.935992	431.477
0.963751	488.194
0.998784	584.179
0.446461	290.201
0.010192	167.414
0.056876	225.266
0.006904	150.885
0.003616	140.26
0.001973	128.453
0.001973	119.008
0.001973	107.202
0.001973	96.5761
0.001973	85.9504
0.001973	75.3247
0.001973	63.5183
0.000329	51.7119
0.000329	44.6281
0.001973	36.3636
0.001973	25.7379
0.001973	18.6541
0.001973	9.20897
0.094868	256.223
0.12165	261.014
0.148432	267.311
0.166666	271.123
0.193448	275.347
0.22023	277.802
0.240437	280.231
0.267219	282.324
0.309124	285.504
0.335906	288.496
0.362688	293.358
0.383553	295.469
0.405075	297.308
0.431857	299.906
0.455351	303.145
0.482133	306.654
0.501025	311.053
0.527807	315.221
0.545383	316.023
0.572165	320.692
0.593687	322.182
0.620469	326.644
0.647251	330.372
0.66417	332.918
0.690953	335.074
0.717735	342.433
0.969842	552.495
0.988919	578.386
0.94947	518.064
0.924813	480.283
0.903443	453.129
0.878786	422.432
0.852485	400
0.834402	387.013
0.813033	371.665
0.790019	361.039
0.765362	352.775
0.739061	345.691
0.288655	284.298
