Adsorption isotherm of Carbon Dioxide on TpPA-1
DOI: 10.1039/c8ce01397g
Article source: Figure 3a/S15a
Adsorbate Carbon Dioxide: InChIKey CURLTUGMZLYLDI-UHFFFAOYSA-N
Kind: experiment
Temperature: 273 K
Tabular data in the source: 0
pressure (bar)	uptake (mmol/g)
0.152825	1.54488
0.184753	1.71756
0.214256	1.87319
0.23891	1.99274
0.270838	2.13185
0.299371	2.24909
0.331299	2.36901
0.385535	2.56659
0.417463	2.67691
0.449391	2.79204
0.47259	2.87935
0.502578	2.96569
0.532566	3.05665
0.564494	3.14299
0.590118	3.22551
0.622046	3.31185
0.648154	3.38477
0.680082	3.47112
0.733834	3.60002
0.765762	3.68156
0.794295	3.73779
0.826223	3.82413
0.850876	3.88764
0.87747	3.94982
0.909398	4.02177
0.941326	4.08892
0.973254	4.16567
0.998796	4.21364
0.707565	3.5337
0.359602	2.47723
0.04195	0.673953
0.06741	0.938069
0.097721	1.18397
0.124394	1.39344
