Adsorption isotherm of Carbon Dioxide on CAA-COF-1
DOI: 10.1039/c8ce01397g
Article source: Figure S15b
Adsorbate Carbon Dioxide: InChIKey CURLTUGMZLYLDI-UHFFFAOYSA-N
Kind: experiment
Temperature: 298 K
Tabular data in the source: 0
pressure (bar)	uptake (mmol/g)
0.00449	0.206077
0.043399	0.525377
0.096898	1.01461
0.126079	1.20862
0.15526	1.38316
0.184441	1.53131
0.213623	1.67946
0.242804	1.81543
0.271985	1.94531
0.301166	2.06302
0.330347	2.17667
0.359529	2.28423
0.38871	2.39179
0.417891	2.49529
0.447072	2.59068
0.476254	2.68403
0.505435	2.7713
0.534616	2.86059
0.563797	2.9438
0.592978	3.03107
0.62216	3.10413
0.651341	3.18125
0.680522	3.25836
0.709703	3.33751
0.738885	3.40651
0.768066	3.47957
0.797247	3.54452
0.826428	3.61555
0.855609	3.68049
0.884791	3.74137
0.913972	3.81037
0.94489	3.87735
0.970389	3.9293
0.999084	4.00156
0.063802	0.766096
