Adsorption isotherm of Nitrogen on CAA-COF-2
DOI: 10.1039/c8ce01397g
Article source: Figure S17a
Adsorbate Nitrogen: InChIKey IJGRMHOSHXDMSA-UHFFFAOYSA-N
Kind: experiment
Temperature: 273 K
Tabular data in the source: 0
pressure (bar)	uptake (mmol/g)
1.01012	0.178648
0.955589	0.171293
0.902048	0.161616
0.846524	0.151939
0.797941	0.144971
0.742417	0.137229
0.690859	0.125616
0.634344	0.114778
0.581795	0.107036
0.526271	0.096197
0.47273	0.088455
0.417206	0.081101
0.364657	0.068714
0.31409	0.059423
0.256584	0.050907
0.206017	0.04123
0.153468	0.030779
0.096953	0.020714
0.084063	0.018004
0.069191	0.015682
0.058284	0.013746
0.048369	0.011811
0.04242	0.009876
0.032505	0.008327
0.026556	0.006392
0.019616	0.00523
0.013667	0.003682
