Adsorption isotherm of Methane on CAA-COF-1
DOI: 10.1039/c8ce01397g
Article source: Figure S16c
Adsorbate Methane: InChIKey VNWKTOKETHGBQD-UHFFFAOYSA-N
Kind: experiment
Temperature: 313 K
Tabular data in the source: 0
pressure (bar)	uptake (mmol/g)
0.190162	0.09422
0.2153	0.105814
0.240438	0.118085
0.265577	0.131032
0.290715	0.142771
0.317211	0.155292
0.342349	0.167901
0.367487	0.180075
0.397378	0.193234
0.422516	0.204539
0.447654	0.216422
0.472792	0.229176
0.49793	0.24106
0.523069	0.250867
0.548207	0.264538
0.573345	0.276132
0.598483	0.287726
0.623621	0.299175
0.64876	0.311784
0.673898	0.322605
0.699036	0.334392
0.72689	0.346537
0.752028	0.358856
0.777166	0.369919
0.802304	0.380595
0.832874	0.394334
0.858012	0.404479
0.88315	0.416073
0.908288	0.426798
0.933426	0.438682
0.958565	0.449406
0.983703	0.460565
1.00884	0.472015
1.03398	0.482304
1.06517	0.493346
0.165648	0.081409
0.136796	0.06771
0.113035	0.05499
0.087576	0.043249
0.065513	0.031507
0.045146	0.022701
0.01799	0.011937
