Adsorption isotherm of Methane on TpPA-1
DOI: 10.1039/c8ce01397g
Article source: Figure S16b
Adsorbate Methane: InChIKey VNWKTOKETHGBQD-UHFFFAOYSA-N
Kind: experiment
Temperature: 298 K
Tabular data in the source: 0
pressure (bar)	uptake (mmol/g)
0.089124	0.05971
0.1151	0.078517
0.139401	0.095265
0.164539	0.110104
0.189677	0.125368
0.214815	0.141056
0.239953	0.156065
0.265092	0.168615
0.295661	0.186317
0.320799	0.199885
0.345937	0.214725
0.371076	0.227868
0.396214	0.243132
0.421352	0.256276
0.44649	0.268996
0.471628	0.281715
0.496767	0.297403
0.521905	0.310123
0.548401	0.323839
0.573539	0.336983
0.598677	0.348855
0.623815	0.36327
0.648954	0.37493
0.679523	0.390025
0.704661	0.402321
0.729799	0.415252
0.754937	0.427336
0.780076	0.440056
0.805214	0.452776
0.830352	0.465071
0.859564	0.477516
0.884702	0.489811
0.90984	0.501259
0.934978	0.513979
0.960116	0.524579
0.985255	0.536026
1.01039	0.548322
1.03553	0.558922
1.06067	0.569098
0.06721	0.041221
0.04854	0.031202
0.023082	0.018321
