Adsorption isotherm of Methane on TpBD
DOI: 10.1039/c8ce01397g
Article source: Figure S16a
Adsorbate Methane: InChIKey VNWKTOKETHGBQD-UHFFFAOYSA-N
Kind: experiment
Temperature: 273 K
Tabular data in the source: 0
pressure (bar)	uptake (mmol/g)
0.042837	0.03222
0.065495	0.046187
0.090627	0.06442
0.11576	0.07981
0.140892	0.093099
0.166025	0.108524
0.193193	0.124281
0.218326	0.139114
0.243458	0.15333
0.268591	0.1694
0.293723	0.183615
0.318856	0.197831
0.343988	0.212665
0.369121	0.228116
0.394253	0.240478
0.422779	0.255528
0.447912	0.269126
0.47472	0.28056
0.499173	0.295219
0.520955	0.307271
0.551157	0.32398
0.576289	0.338196
0.601422	0.349939
0.626554	0.363537
0.650011	0.374147
0.676819	0.387023
0.701951	0.399385
0.727084	0.411746
0.754951	0.42667
0.782798	0.439032
0.806255	0.450672
0.835099	0.464589
0.860232	0.476951
0.885364	0.488694
0.910497	0.501055
0.935629	0.512799
0.960762	0.523924
0.985894	0.535667
1.01103	0.547411
1.03616	0.5573
1.06273	0.566659
0.021947	0.022033
