Adsorption isotherm of Methane on CAA-COF-1
DOI: 10.1039/c8ce01397g
Article source: Figure S16b
Adsorbate Methane: InChIKey VNWKTOKETHGBQD-UHFFFAOYSA-N
Kind: experiment
Temperature: 298 K
Tabular data in the source: 0
pressure (bar)	uptake (mmol/g)
0.14008	0.109956
0.165218	0.127339
0.190356	0.144299
0.215494	0.162107
0.240632	0.179066
0.265771	0.19645
0.290909	0.213834
0.317405	0.233359
0.345937	0.25352
0.371076	0.269844
0.396214	0.287651
0.421352	0.304611
0.44649	0.321147
0.471628	0.337682
0.496767	0.35761
0.521905	0.374569
0.547043	0.390257
0.572181	0.407641
0.597319	0.4246
0.622458	0.441136
0.651669	0.459114
0.676807	0.474802
0.701945	0.489641
0.727084	0.507873
0.752222	0.524861
0.77736	0.539248
0.806572	0.558074
0.83171	0.572914
0.856848	0.588601
0.881986	0.604077
0.907124	0.617942
0.932263	0.63524
0.959437	0.652497
0.984576	0.668185
1.00971	0.683448
1.03485	0.698712
1.05999	0.713976
0.111337	0.087023
0.085879	0.068416
0.060421	0.049809
0.041752	0.032634
0.019688	0.018321
