Adsorption isotherm of Nitrogen on CAA-COF-1
DOI: 10.1039/c8ce01397g
Article source: Figure S17b
Adsorbate Nitrogen: InChIKey IJGRMHOSHXDMSA-UHFFFAOYSA-N
Kind: experiment
Temperature: 293 K
Tabular data in the source: 0
pressure (bar)	uptake (mmol/g)
1.01214	0.177165
0.956429	0.166895
0.900714	0.159192
0.845	0.150205
0.793571	0.140897
0.745	0.131911
0.693571	0.121319
0.632143	0.112012
0.580714	0.103346
0.525	0.09436
0.470714	0.085052
0.420714	0.075744
0.365	0.065795
0.310714	0.056166
0.262143	0.046538
0.209286	0.036909
0.149286	0.02696
0.096429	0.017652
0.086429	0.015406
0.076429	0.01348
0.065	0.012196
0.056429	0.010591
0.046429	0.009308
0.036429	0.007382
0.027857	0.005777
0.019286	0.003851
0.009286	0.002247
