Adsorption isotherm of Nitrogen on CAA-COF-1 w/ Acid Treatment (5 days)
DOI: 10.1039/c8ce01397g
Article source: Figure S13b
Adsorbate Nitrogen: InChIKey IJGRMHOSHXDMSA-UHFFFAOYSA-N
Kind: experiment
Temperature: 77 K
Tabular data in the source: 0
pressure (bar)	uptake ()
0.012702	138.115
0.010599	127.658
0.006393	116.396
0.005341	104.331
0.003239	94.6783
0.003239	85.0257
0.003239	73.7645
0.003239	65.7207
0.00429	57.677
0.003239	48.0245
0.001136	39.9807
0.001136	30.3282
0.001136	22.2844
0.001136	13.4363
8.4e-05	3.78378
0.037937	158.224
0.060018	163.05
0.092614	172.703
0.099974	183.16
0.110489	176.725
0.124158	188.79
0.138879	177.529
0.14729	189.595
0.163062	183.16
0.174629	195.225
0.190401	185.573
0.19671	199.247
0.217739	189.595
0.219842	203.269
0.245077	194.421
0.244026	201.66
0.26821	204.073
0.269261	196.03
0.295548	199.247
0.287136	206.486
0.316578	212.117
0.328144	203.269
0.33971	213.726
0.355482	206.486
0.362842	214.53
0.374409	209.704
0.388078	217.748
0.402798	211.313
0.414365	221.77
0.425931	214.53
0.433291	223.378
0.454321	225.792
0.452218	215.335
0.483762	224.987
0.484813	236.248
0.505843	249.118
0.5111	224.183
0.533181	231.422
0.530027	253.14
0.552108	254.749
0.559468	231.422
0.584703	237.857
0.578394	259.575
0.604681	259.575
0.615196	238.662
0.63938	246.705
0.629917	261.184
0.6541	265.206
0.670924	246.705
0.691953	254.749
0.674078	268.423
0.700365	273.25
0.715086	258.771
0.740321	263.597
0.720343	278.88
0.751887	285.315
0.771865	270.837
0.792895	278.076
0.771865	290.142
0.794998	296.577
0.823388	285.315
0.821285	303.816
0.844417	294.163
0.870704	303.816
0.844417	313.468
0.865447	323.925
0.892785	319.099
0.891733	340.817
0.92538	340.013
0.916969	357.709
0.936947	383.449
0.955873	368.97
0.966388	426.081
0.976903	416.429
0.984263	480.779
1.00214	516.171
