Adsorption isotherm of Carbon Dioxide on CAA-COF-2
DOI: 10.1039/c8ce01397g
Article source: Figure S15b
Adsorbate Carbon Dioxide: InChIKey CURLTUGMZLYLDI-UHFFFAOYSA-N
Kind: experiment
Temperature: 298 K
Tabular data in the source: 0
pressure (bar)	uptake (mmol/g)
0.062853	0.329197
0.092034	0.435405
0.121215	0.528759
0.150397	0.605878
0.179578	0.678938
0.208759	0.747939
0.23794	0.806793
0.267121	0.871736
0.296303	0.926531
0.325484	0.983355
0.354665	1.04018
0.383846	1.08889
0.413028	1.13759
0.442209	1.1863
0.47139	1.23095
0.500571	1.27357
0.529752	1.31618
0.558934	1.35677
0.588115	1.40345
0.617296	1.44404
0.646477	1.47854
0.675659	1.51913
0.70484	1.55566
0.734021	1.59625
0.763202	1.63278
0.792383	1.66728
0.821565	1.70178
0.850746	1.74034
0.879927	1.77484
0.909108	1.80934
0.93829	1.84181
0.967471	1.87428
0.996652	1.90472
0.042643	0.236349
0.008464	0.105949
