Adsorption isotherm of Methane on CAA-COF-2
DOI: 10.1039/c8ce01397g
Article source: Figure S16a
Adsorbate Methane: InChIKey VNWKTOKETHGBQD-UHFFFAOYSA-N
Kind: experiment
Temperature: 273 K
Tabular data in the source: 0
pressure (bar)	uptake (mmol/g)
0.142459	0.115287
0.170105	0.13455
0.195237	0.151444
0.22037	0.166278
0.243873	0.184202
0.269006	0.198418
0.294138	0.215106
0.319271	0.229321
0.344403	0.2457
0.369536	0.260225
0.394668	0.276294
0.423873	0.290893
0.449006	0.306345
0.474138	0.320561
0.49927	0.336013
0.524403	0.348992
0.549535	0.363826
0.574668	0.376805
0.5998	0.390403
0.627376	0.406003
0.652509	0.418674
0.680085	0.434274
0.705217	0.448181
0.73035	0.460542
0.755482	0.471461
0.780614	0.486501
0.805747	0.495772
0.830879	0.510606
0.856012	0.522349
0.881144	0.533474
0.906277	0.5446
0.931409	0.559742
0.956542	0.570868
0.981674	0.581684
1.00681	0.594045
1.06312	0.617927
1.03869	0.607912
0.112219	0.097146
0.087784	0.077116
0.065386	0.057086
0.038916	0.037056
0.02059	0.027041
