Adsorption isotherm of Carbon Dioxide on TpBD
DOI: 10.1039/c8ce01397g
Article source: Figure S15c
Adsorbate Carbon Dioxide: InChIKey CURLTUGMZLYLDI-UHFFFAOYSA-N
Kind: experiment
Temperature: 323 K
Tabular data in the source: 0
pressure (bar)	uptake (mmol/g)
0.008374	0.028853
0.037536	0.118873
0.066698	0.196263
0.095861	0.249856
0.125023	0.302274
0.154185	0.349157
0.183347	0.37821
0.212509	0.418159
0.241672	0.456292
0.270834	0.494425
0.299996	0.521662
0.329158	0.5489
0.358321	0.576138
0.387483	0.603375
0.416645	0.626981
0.445807	0.646956
0.47497	0.670562
0.504132	0.690536
0.533294	0.712326
0.562456	0.732301
0.591619	0.746827
0.620781	0.764986
0.649943	0.779513
0.679105	0.801303
0.708268	0.815829
0.73743	0.826725
0.766592	0.842159
0.795754	0.853962
0.824916	0.864857
0.854079	0.870305
0.883241	0.886647
0.912403	0.895727
0.941565	0.90299
0.970728	0.912069
0.99989	0.919938
