Adsorption isotherm of Methane on [Zn(BDC-OH)-(TED)0.5]
DOI: 10.1002/chem.201002818
Adsorbate Methane: InChIKey VNWKTOKETHGBQD-UHFFFAOYSA-N
Temperature: 298 K
Tabular data in the source: 0
pressure (bar)	uptake (cm3(STP)/g)
0.0998979	1.22122
0.204553	2.44356
0.306829	3.42582
0.406727	4.40752
0.509004	5.38978
0.608901	6.37148
0.708799	7.35318
0.808697	8.33488
0.910974	9.55666
1.00849	10.5378
