Adsorption isotherm of Nitrogen on Zn(bdc)(ted)0.5
DOI: 10.1002/chem.201002818
Adsorbate Nitrogen: InChIKey IJGRMHOSHXDMSA-UHFFFAOYSA-N
Temperature: 298 K
Tabular data in the source: 0
pressure (bar)	uptake (cm3(STP)/g)
0.104655	0.461538
0.204553	0.615385
0.306829	0.923077
0.404349	1.23077
0.506625	1.38462
0.608901	1.84615
0.708799	2.15385
0.813454	2.46154
0.908595	2.76923
1.00849	3.07692
