Adsorption isotherm of Hydrogen on Zn(bdc)(ted)0.5
DOI: 10.1002/chem.201002818
Adsorbate Hydrogen: InChIKey UFHFLCQGNIYNRP-UHFFFAOYSA-N
Temperature: 87 K
Tabular data in the source: 0
pressure (bar)	uptake (wt%)
0.0528723	0.0819113
0.0779235	0.116041
0.102965	0.156997
0.130805	0.191126
0.155857	0.225256
0.180898	0.266212
0.230991	0.341297
0.26162	0.375427
0.278315	0.40273
0.336783	0.47099
0.359055	0.498294
0.381308	0.539249
0.43143	0.593857
0.45927	0.627986
0.484331	0.65529
0.534433	0.723549
0.559504	0.744027
0.584564	0.771331
0.634676	0.832765
0.659737	0.860068
0.687587	0.887372
0.73492	0.94198
0.75998	0.969283
0.785051	0.989761
0.835182	1.03754
0.863022	1.07167
0.888083	1.09898
0.938214	1.14676
0.966073	1.16724
0.991143	1.18771
