Adsorption isotherm of Hydrogen on [Zn(BDC-OH)-(TED)0.5]
DOI: 10.1002/chem.201002818
Adsorbate Hydrogen: InChIKey UFHFLCQGNIYNRP-UHFFFAOYSA-N
Temperature: 77 K
Tabular data in the source: 0
pressure (bar)	uptake (wt%)
0.0113189	0.0686645
0.0226378	0.137329
0.033996	0.178502
0.0652358	0.288291
0.102174	0.404921
0.127755	0.480378
0.164703	0.590134
0.204505	0.699875
0.255705	0.823297
0.321147	0.967257
0.403695	1.12487
0.506202	1.29611
0.571732	1.37821
0.637243	1.47406
0.717034	1.56296
0.805398	1.64493
0.90516	1.74059
1.01065	1.82247
