Adsorption isotherm of Carbon Dioxide on [Zn(BDC-OH)-(TED)0.5]
DOI: 10.1002/chem.201002818
Adsorbate Carbon Dioxide: InChIKey CURLTUGMZLYLDI-UHFFFAOYSA-N
Temperature: 278 K
Tabular data in the source: 0
pressure (bar)	uptake (wt%)
0.0332074	1.0574
0.0408706	1.35952
0.0510882	1.66163
0.0842956	2.56798
0.102176	3.09668
0.127721	3.85196
0.160928	4.68278
0.201799	5.66465
0.255441	6.94864
0.32441	8.53474
0.403597	10.423
0.508328	12.9154
0.569634	14.3505
0.638603	16.0121
0.712681	17.7492
0.80464	19.6375
0.901707	21.6012
1.00644	23.6405
