Adsorption isotherm of Nitrogen on [Zn(BDC-OH)-(TED)0.5]
DOI: 10.1002/chem.201002818
Adsorbate Nitrogen: InChIKey IJGRMHOSHXDMSA-UHFFFAOYSA-N
Temperature: 77 K
Tabular data in the source: 0
pressure (bar)	uptake (cm3(STP)/g)
0.00126489	194.243
0.00133984	205.753
0.00401953	217.26
0.00669922	228.767
0.0119743	238.832
0.0302542	246
0.0511015	247.409
0.105829	251.648
0.204846	257.263
0.306459	261.435
0.410676	265.604
0.512326	275.531
0.611362	284.024
0.713078	304.023
0.812376	352.803
0.91398	355.537
1.01037	358.277
