Adsorption isotherm of Oxygen on [Zn(BDC-OH)-(TED)0.5]
DOI: 10.1002/chem.201002818
Adsorbate Oxygen: InChIKey MYMOFIZGZYHOMD-UHFFFAOYSA-N
Temperature: 298 K
Tabular data in the source: 0
pressure (bar)	uptake (cm3(STP)/g)
0.0951408	0.262011
0.204553	0.527396
0.306829	1.03061
0.404349	1.29319
0.506625	1.55689
0.604144	2.05898
0.706421	2.32268
0.811076	2.58694
0.908595	2.84951
1.00849	3.11265
