Adsorption isotherm of Carbon monoxide on [Zn(BDC-OH)-(TED)0.5]
DOI: 10.1002/chem.201002818
Adsorbate Carbon monoxide: InChIKey UGFAIRIUMAVXCW-UHFFFAOYSA-N
Temperature: 298 K
Tabular data in the source: 0
pressure (bar)	uptake (cm3(STP)/g)
0.0975194	0.741615
0.204553	1.24596
0.304451	1.50909
0.404349	2.25127
0.506625	2.75449
0.606523	3.01763
0.708799	3.52085
0.808697	4.0235
0.908595	4.28664
1.00849	5.02882
