Adsorption isotherm of Carbon Dioxide on Zn(bdc)(ted)0.5
DOI: 10.1002/chem.201002818
Adsorbate Carbon Dioxide: InChIKey CURLTUGMZLYLDI-UHFFFAOYSA-N
Temperature: 278 K
Tabular data in the source: 0
pressure (bar)	uptake (wt%)
0.0224066	0.32377
0.0532079	0.712501
0.0784007	0.971902
0.103602	1.29582
0.128813	1.68425
0.156819	2.07284
0.204428	2.72052
0.252063	3.56176
0.319292	4.59759
0.403337	5.95689
0.509807	7.76899
0.568669	8.9334
0.638747	10.3565
0.717238	11.9735
0.804141	13.7846
0.905075	15.9835
1.01441	18.3119
