Adsorption isotherm of Hydrogen on [Zn(BDC-OH)-(TED)0.5]
DOI: 10.1002/chem.201002818
Adsorbate Hydrogen: InChIKey UFHFLCQGNIYNRP-UHFFFAOYSA-N
Temperature: 87 K
Tabular data in the source: 0
pressure (bar)	uptake (wt%)
0.0156048	0.020339
0.0405491	0.0677966
0.0592494	0.108475
0.0810982	0.135593
0.099809	0.169492
0.127881	0.216949
0.162218	0.257627
0.205905	0.318644
0.252698	0.39322
0.32135	0.488136
0.405618	0.59661
0.514883	0.718644
0.567942	0.786441
0.639753	0.861017
0.71783	0.928814
0.811501	1.02373
0.902077	1.09831
1.01138	1.19322
