Adsorption isotherm of Methane on Zn(bdc)(ted)0.5
DOI: 10.1002/chem.201002818
Adsorbate Methane: InChIKey VNWKTOKETHGBQD-UHFFFAOYSA-N
Temperature: 298 K
Tabular data in the source: 0
pressure (bar)	uptake (cm3(STP)/g)
0.0975194	0.769231
0.204553	2
0.306829	3.07692
0.409106	4.15385
0.509004	5.07692
0.608901	6.15385
0.711178	7.23077
0.811076	8.46154
0.913352	9.23077
0.953787	9.53846
