Adsorption isotherm of Nitrogen on Zn(bdc)(ted)0.5
DOI: 10.1002/chem.201002818
Adsorbate Nitrogen: InChIKey IJGRMHOSHXDMSA-UHFFFAOYSA-N
Temperature: 77 K
Tabular data in the source: 0
pressure (bar)	uptake (cm3(STP)/g)
0.00168766	369.76
0.00179698	393.713
0.00184481	404.192
0.00418156	416.168
0.00660031	446.108
0.0089234	455.09
0.0158038	462.575
0.0272143	462.575
0.0477737	467.066
0.100269	468.563
0.200688	470.06
0.301107	471.557
0.403801	471.557
0.504227	474.551
0.606935	477.545
0.711918	479.042
0.810048	479.042
0.910467	480.539
1.00632	482.036
