Adsorption isotherm of Carbon Dioxide on Zn(bdc)(ted)0.5
DOI: 10.1002/chem.201002818
Adsorbate Carbon Dioxide: InChIKey CURLTUGMZLYLDI-UHFFFAOYSA-N
Temperature: 288 K
Tabular data in the source: 0
pressure (bar)	uptake (wt%)
0.100744	0.844055
0.125928	1.03894
0.159506	1.29879
0.198693	1.68796
0.257455	2.14269
0.31904	2.79112
0.405799	3.56992
0.509374	4.67219
0.565368	5.32032
0.640947	6.09853
0.716543	7.00576
0.806116	7.91374
0.904119	9.14475
1.0133	10.3763
