Adsorption isotherm of Carbon Dioxide on [Zn(BDC-NH2).(TED)0.5]
DOI: 10.1002/chem.201002818
Adsorbate Carbon Dioxide: InChIKey CURLTUGMZLYLDI-UHFFFAOYSA-N
Temperature: 278 K
Tabular data in the source: 0
pressure (bar)	uptake (wt%)
0.0433419	0.650888
0.0535368	0.828402
0.0688255	1.12426
0.0866686	1.42012
0.104504	1.77515
0.129988	2.24852
0.163112	2.89941
0.206439	3.66864
0.257406	4.61538
0.3211	5.91716
0.402637	7.51479
0.509666	9.52663
0.570813	10.7692
0.634507	12.071
0.716051	13.6095
0.802705	15.1479
0.902115	16.8047
1.00664	18.4024
