Adsorption isotherm of Carbon Dioxide on [Zn(BDC-OH)-(TED)0.5]
DOI: 10.1002/chem.201002818
Adsorbate Carbon Dioxide: InChIKey CURLTUGMZLYLDI-UHFFFAOYSA-N
Temperature: 298 K
Tabular data in the source: 0
pressure (bar)	uptake (wt%)
0.0171261	0.355245
0.0484868	0.843422
0.0627518	1.1098
0.0769965	1.28722
0.0997942	1.59777
0.125473	2.08616
0.159665	2.52975
0.199568	3.10658
0.250865	3.81644
0.319248	4.70362
0.401876	5.76822
0.507291	7.09888
0.567121	7.85292
0.638335	8.69551
0.720943	9.67113
0.80355	10.6468
0.900402	11.7998
1.00864	13.0414
