Adsorption isotherm of Carbon Dioxide on [Zn(BDC-OH)-(TED)0.5]
DOI: 10.1002/chem.201002818
Adsorbate Carbon Dioxide: InChIKey CURLTUGMZLYLDI-UHFFFAOYSA-N
Temperature: 288 K
Tabular data in the source: 0
pressure (bar)	uptake (wt%)
0.0204353	0.755287
0.0485338	1.0574
0.0613059	1.43505
0.0817412	1.73716
0.104731	2.26586
0.127721	2.79456
0.160928	3.32326
0.201799	4.15408
0.252887	5.13595
0.321856	6.34441
0.403597	7.6284
0.508328	9.36556
0.569634	10.423
0.638603	11.6314
0.715235	12.9154
0.802085	14.3505
0.901707	15.861
1.00388	17.5227
