Adsorption isotherm of Carbon Dioxide on [Zn(BDC-NH2).(TED)0.5]
DOI: 10.1002/chem.201002818
Adsorbate Carbon Dioxide: InChIKey CURLTUGMZLYLDI-UHFFFAOYSA-N
Temperature: 298 K
Tabular data in the source: 0
pressure (bar)	uptake (wt%)
0.0199366	0.221691
0.0455448	0.39869
0.0597997	0.620588
0.0797262	0.797795
0.0996527	0.975002
0.128122	1.24086
0.15375	1.50683
0.196454	1.90562
0.247701	2.39307
0.313172	2.96897
0.39859	3.81104
0.506776	4.83021
0.560863	5.31756
0.637739	6.07097
0.714604	6.77991
0.805703	7.62177
0.902505	8.55239
1.00784	9.52718
