Adsorption isotherm of Carbon monoxide on Zn(bdc)(ted)0.5
DOI: 10.1002/chem.201002818
Adsorbate Carbon monoxide: InChIKey UGFAIRIUMAVXCW-UHFFFAOYSA-N
Temperature: 298 K
Tabular data in the source: 0
pressure (bar)	uptake (cm3(STP)/g)
0.0998979	0.461538
0.204553	0.769231
0.304451	1.07692
0.406727	1.69231
0.509004	2.15385
0.608901	2.61538
0.711178	3.23077
0.813454	3.53846
0.913352	4.15385
1.01087	4.46154
