Adsorption isotherm of Oxygen on Zn(bdc)(ted)0.5
DOI: 10.1002/chem.201002818
Adsorbate Oxygen: InChIKey MYMOFIZGZYHOMD-UHFFFAOYSA-N
Temperature: 298 K
Tabular data in the source: 0
pressure (bar)	uptake (cm3(STP)/g)
0.104655	0.153846
0.206931	0.307692
0.304451	0.615385
0.406727	1.07692
0.506625	1.38462
0.608901	1.69231
0.708799	1.84615
0.808697	2.15385
0.913352	2.30769
1.00849	2.76923
