Adsorption isotherm of Nitrogen on [Zn(BDC-NH2).(TED)0.5]
DOI: 10.1002/chem.201002818
Adsorbate Nitrogen: InChIKey IJGRMHOSHXDMSA-UHFFFAOYSA-N
Temperature: 77 K
Tabular data in the source: 0
pressure (bar)	uptake (cm3(STP)/g)
0.00228209	244.021
0.0159747	254.505
0.0273851	257.119
0.0524882	261.471
0.102694	265.801
0.203106	270.962
0.301236	274.376
0.403931	276.911
0.506625	281.195
0.604755	283.735
0.709731	284.519
0.810144	286.181
0.912838	287.842
1.00412	295.635
