Adsorption isotherm of Carbon Dioxide on [Zn(BDC-NH2).(TED)0.5]
DOI: 10.1002/chem.201002818
Adsorbate Carbon Dioxide: InChIKey CURLTUGMZLYLDI-UHFFFAOYSA-N
Temperature: 288 K
Tabular data in the source: 0
pressure (bar)	uptake (wt%)
0.0816127	1.00592
0.104565	1.30178
0.130071	1.59763
0.163218	2.07101
0.206567	2.66272
0.257572	3.31361
0.323874	4.20118
0.405471	5.32544
0.507466	6.74556
0.571221	7.57396
0.63496	8.52071
0.716558	9.64497
0.803257	10.8284
0.900166	12.071
1.00983	13.432
