Adsorption isotherm of Nitrogen on [Zn(BDC-OH)-(TED)0.5]
DOI: 10.1002/chem.201002818
Adsorbate Nitrogen: InChIKey IJGRMHOSHXDMSA-UHFFFAOYSA-N
Temperature: 298 K
Tabular data in the source: 0
pressure (bar)	uptake (cm3(STP)/g)
0.0951408	0.741053
0.202174	1.2454
0.302072	1.02949
0.40197	1.77167
0.501868	2.0348
0.606523	2.53858
0.704042	2.56164
0.808697	3.06542
0.908595	3.56808
1.00849	3.35217
