Adsorption isotherm of Carbon Dioxide on Zn(bdc)(ted)0.5
DOI: 10.1002/chem.201002818
Adsorbate Carbon Dioxide: InChIKey CURLTUGMZLYLDI-UHFFFAOYSA-N
Temperature: 298 K
Tabular data in the source: 0
pressure (bar)	uptake (wt%)
0.0455044	0.220755
0.0824862	0.441822
0.0995617	0.574649
0.128011	0.751544
0.159311	0.972819
0.199144	1.23827
0.253201	1.59216
0.318652	2.07909
0.401158	2.60988
0.506432	3.31777
0.566212	3.84939
0.637344	4.33611
0.719871	4.95587
0.805269	5.70897
0.904871	6.46156
1.01019	7.34738
