Adsorption isotherm of Hydrogen on [Zn(BDC-NH2).(TED)0.5]
DOI: 10.1002/chem.201002818
Adsorbate Hydrogen: InChIKey UFHFLCQGNIYNRP-UHFFFAOYSA-N
Temperature: 77 K
Tabular data in the source: 0
pressure (bar)	uptake (wt%)
0.0425783	0.164708
0.053907	0.226499
0.065275	0.260799
0.0851665	0.322543
0.105058	0.384286
0.124969	0.432283
0.201739	0.638035
0.255813	0.747695
0.31843	0.871052
0.403871	1.00115
0.512146	1.13113
0.571987	1.19952
0.640391	1.26786
0.717358	1.33615
0.805751	1.39751
0.905562	1.4588
1.01107	1.52693
