Adsorption isotherm of Hydrogen on [Zn(BDC-NH2).(TED)0.5]
DOI: 10.1002/chem.201002818
Adsorbate Hydrogen: InChIKey UFHFLCQGNIYNRP-UHFFFAOYSA-N
Temperature: 87 K
Tabular data in the source: 0
pressure (bar)	uptake (wt%)
0.0129448	0.0332725
0.0233038	0.0617952
0.0362333	0.085544
0.0620769	0.123518
0.0776	0.156778
0.0982795	0.190014
0.124123	0.227988
0.157724	0.280211
0.199076	0.341922
0.253341	0.417857
0.320513	0.503256
0.403193	0.612391
0.50392	0.721441
0.571061	0.787792
0.640781	0.854131
0.720813	0.920422
0.803447	1.00099
0.906699	1.07669
1.01254	1.15715
