Adsorption isotherm of Hydrogen on Zn(bdc)(ted)0.5
DOI: 10.1002/chem.201002818
Adsorbate Hydrogen: InChIKey UFHFLCQGNIYNRP-UHFFFAOYSA-N
Temperature: 77 K
Tabular data in the source: 0
pressure (bar)	uptake (wt%)
0.022628	0.144202
0.0680802	0.295148
0.102174	0.404921
0.224417	0.747872
0.278471	0.871278
0.329641	1.01532
0.352397	1.07017
0.383686	1.1456
0.43207	1.24154
0.454806	1.31014
0.480436	1.35124
0.534519	1.45402
0.55443	1.50202
0.582914	1.5431
0.637017	1.63214
0.659802	1.66637
0.682577	1.70748
0.73669	1.78965
0.759465	1.83076
0.787969	1.85809
0.839247	1.92653
0.864886	1.96075
0.890516	2.00184
0.936095	2.06344
0.984539	2.11815
