Adsorption isotherm of Hydrogen on JUC-103
DOI: 10.1039/C3ta11840a
Adsorbate Hydrogen: InChIKey UFHFLCQGNIYNRP-UHFFFAOYSA-N
Temperature: 77 K
Tabular data in the source: 0
pressure (bar)	uptake (wt%)
-0.00634977	0.0268657
0.00683449	0.0626866
0.0265139	0.0985075
0.0331546	0.125373
0.0463389	0.161194
0.0530279	0.197015
0.0728043	0.250746
0.0992213	0.331343
0.151716	0.429851
0.204114	0.510448
0.256463	0.58209
0.308812	0.653731
0.361113	0.716418
0.406871	0.770149
0.459074	0.814925
0.511278	0.859701
0.556939	0.895522
0.609094	0.931343
0.654754	0.967164
0.713405	1.00299
0.759065	1.03881
0.811171	1.06567
0.863279	1.09254
0.915386	1.1194
0.960998	1.14627
1.01306	1.16418
