Adsorption isotherm of Nitrogen on JUC-103
DOI: 10.1039/C3ta11840a
Adsorbate Nitrogen: InChIKey IJGRMHOSHXDMSA-UHFFFAOYSA-N
Temperature: 273 K
Tabular data in the source: 0
pressure (bar)	uptake (wt%)
0.0379283	1.51674
0.0601176	0.975508
0.0822835	0.952822
0.104449	0.930136
0.155091	1.39682
0.208922	1.34173
0.259563	1.80842
0.307061	1.7598
0.36087	2.22325
0.408368	2.17464
0.455866	2.12602
0.506507	2.59271
0.560339	2.53762
0.610981	3.00431
0.661622	3.47099
0.709143	2.90384
0.762952	3.36729
0.813616	3.31543
0.861091	3.78536
0.914922	3.73027
0.965588	3.67841
