Adsorption isotherm of Ethene on JUC-103
DOI: 10.1039/C3ta11840a
Adsorbate Ethene: InChIKey VGGSQFUCUMXWEO-UHFFFAOYSA-N
Temperature: 273 K
Tabular data in the source: 0
pressure (bar)	uptake (cm3(STP)/g)
0.867744	5.66963
1.61729	9.265
1.99088	11.323
2.49216	13.3728
3.36702	17.4807
4.24427	21.0679
6.11692	30.3167
8.11967	39.0367
10.1272	46.7155
12.007	54.4024
14.1469	61.0319
16.1639	66.6283
18.0532	72.2329
20.0702	77.8293
22.0919	82.3845
24.1136	86.9397
26.2654	90.9662
28.2919	94.4803
30.3184	97.9943
32.3472	100.988
34.3761	103.981
36.4049	106.975
38.4362	109.447
