Adsorption isotherm of Methane on JUC-103
DOI: 10.1039/C3ta11840a
Adsorbate Methane: InChIKey VNWKTOKETHGBQD-UHFFFAOYSA-N
Temperature: 273 K
Tabular data in the source: 0
pressure (bar)	uptake (wt%)
0.0221425	0.495856
0.0442614	1.51026
0.0664037	2.00611
0.0821897	3.02699
0.104332	3.52285
0.15495	4.50808
0.205568	5.49331
0.256186	6.47854
0.309994	6.94199
0.357422	8.449
0.40804	9.43423
0.458658	10.4195
0.506109	11.4079
0.559894	12.3899
0.610511	13.3752
0.661153	13.8418
0.708581	15.3489
0.762389	15.8123
0.812983	17.3161
0.860435	18.3046
0.914242	18.768
0.96486	19.7532
