Adsorption isotherm of Carbon Dioxide on JUC-103
DOI: 10.1039/C3ta11840a
Adsorbate Carbon Dioxide: InChIKey CURLTUGMZLYLDI-UHFFFAOYSA-N
Temperature: 273 K
Tabular data in the source: 0
pressure (bar)	uptake (cm3(STP)/g)
0.96247	3.57097
1.60949	4.56336
2.14599	6.08448
2.791	7.59747
3.54048	10.1435
5.26253	13.6575
6.97849	18.7334
8.70054	22.2474
10.4206	26.282
12.1406	30.3167
13.8586	34.8719
15.4721	38.3941
17.1921	42.4287
19.0227	45.9346
20.7427	49.9692
22.4647	53.4832
24.1868	56.9973
25.9088	60.5113
27.6288	64.5459
29.3529	67.5394
31.0749	71.0534
32.7969	74.5674
