Adsorption isotherm of Ethane on JUC-103
DOI: 10.1039/C3ta11840a
Adsorbate Ethane: InChIKey OTMSDBZUPAUEDD-UHFFFAOYSA-N
Temperature: 273 K
Tabular data in the source: 0
pressure (bar)	uptake (cm3(STP)/g)
0.287773	3.61164
0.501184	7.23142
0.715978	10.3306
0.928007	14.471
1.21578	18.0826
1.43058	21.1818
1.93314	27.8926
2.36273	34.091
3.58543	49.5706
4.67183	60.3812
5.83537	70.1424
7.00165	78.8624
8.17071	86.5412
9.34532	92.1376
10.4455	97.7421
11.6229	102.297
12.8016	106.332
14.0561	109.838
15.1633	112.839
16.4191	115.825
17.602	118.298
18.7863	120.25
19.8948	122.731
21.1548	124.154
22.3391	126.107
