Adsorption isotherm of Nitrogen on JUC-103
DOI: 10.1039/C3ta11840a
Adsorbate Nitrogen: InChIKey IJGRMHOSHXDMSA-UHFFFAOYSA-N
Temperature: 77 K
Tabular data in the source: 0
pressure (bar)	uptake (cm3(STP)/g)
2.33885e-05	3.10074
7.01653e-05	9.30221
0.000596404	79.0688
0.00219851	291.469
0.00313405	15.4989
0.00321591	26.3515
0.00387079	113.172
0.00408128	141.079
0.00429178	168.985
0.00479463	235.651
0.00501681	265.108
0.00512207	279.062
0.00518053	286.813
0.00541442	317.821
0.00849	325.568
0.014571	331.76
0.0176348	337.956
0.0267447	345.694
0.035831	350.33
0.044894	351.866
0.0569976	356.498
0.0781407	359.565
0.102301	362.627
0.15061	367.202
0.198895	368.675
0.247181	370.148
0.295478	373.172
0.343763	374.645
0.392048	376.119
0.440322	376.042
0.488608	377.515
0.536881	377.438
0.588172	377.356
0.633429	377.284
0.68472	377.202
0.733005	378.675
0.781279	378.598
0.829553	378.521
0.874809	378.449
0.926111	379.917
