Adsorption isotherm of Hydrogen on [Ca2Na2(C7H2NO5)2(H2O)6]H2O
DOI: 10.1002/ejic.201403149
Article source: Figure 11
Adsorbate Hydrogen: InChIKey UFHFLCQGNIYNRP-UHFFFAOYSA-N
Kind: experiment
Temperature: 77 K
Tabular data in the source: 0
pressure (bar)	uptake (cm3(STP)/g)
0.047745	74.403
0.05305	72.9104
0.098143	86.3433
0.100796	84.8507
0.148541	91.194
0.198939	98.2836
0.201592	96.0448
0.249337	102.015
0.251989	99.7761
0.299735	102.761
0.302387	105.373
0.350133	105.373
0.400531	108.358
0.403183	110.224
0.450928	110.597
0.501326	112.09
0.551724	115.448
0.554377	113.955
0.599469	117.687
0.602122	115.821
0.65252	117.687
0.700265	121.045
0.702918	120.299
0.750663	122.164
0.753316	121.045
0.801061	122.91
0.803714	122.164
0.851459	123.657
0.854111	122.91
0.899204	124.03
0.949602	124.03
0.954907	123.284
0.997347	124.03
