Adsorption isotherm of Nitrogen on [Ca2Na2(C7H2NO5)2(H2O)6]H2O
DOI: 10.1002/ejic.201403149
Article source: Figure 10
Adsorbate Nitrogen: InChIKey IJGRMHOSHXDMSA-UHFFFAOYSA-N
Kind: experiment
Temperature: 77 K
Tabular data in the source: 0
pressure (bar)	uptake (cm3(STP)/g)
0.021203	457.99
0.026743	458.002
0.048939	466.773
0.073887	471.189
0.101605	475.611
0.123775	477.84
0.148714	480.075
0.173654	482.31
0.198593	484.545
0.201355	482.371
0.223533	486.78
0.226294	484.606
0.248473	489.015
0.251234	486.841
0.273404	489.07
0.278935	486.901
0.298334	489.124
0.326044	491.365
0.348205	491.414
0.373145	493.649
0.398076	493.703
0.403607	491.534
0.423007	493.757
0.428538	491.589
0.447938	493.812
0.472877	496.047
0.497808	496.101
0.525509	496.162
0.55044	496.216
0.57538	498.451
0.597541	498.499
0.625242	498.56
0.647402	498.608
0.675112	500.849
0.700043	500.904
0.722204	500.952
0.749905	501.012
0.774845	503.247
0.799776	503.302
0.824715	505.537
0.846876	505.585
0.855169	501.242
0.874586	507.826
0.899525	510.061
0.924448	507.935
0.924465	512.296
0.949387	510.17
0.949405	514.531
0.974336	514.586
0.974353	518.947
0.993744	518.989
