Adsorption isotherm of Carbon Dioxide on [Sr3(C7H2NO5)2(H2O)9](2H2O)
DOI: 10.1002/ejic.201403149
Article source: Figure 12
Adsorbate Carbon Dioxide: InChIKey CURLTUGMZLYLDI-UHFFFAOYSA-N
Kind: experiment
Temperature: 298 K
Tabular data in the source: 0
pressure (bar)	uptake (cm3(STP)/g)
1.5555	16.6456
1.72833	14.462
2.93816	25.7437
3.11099	43.212
4.66649	33.75
6.22198	39.5728
6.39482	56.3133
7.9503	60.6804
8.12317	43.9399
9.67862	48.307
11.0613	67.5949
11.407	51.2184
12.6168	70.1424
12.9624	54.1297
14.1723	72.6899
14.518	56.6772
15.9006	74.8734
16.0735	58.4968
17.4561	76.3291
17.8018	60.6804
19.0116	78.1487
19.5301	62.1361
20.5671	79.9684
20.9128	64.3196
21.9498	81.4241
22.4683	66.1392
23.851	82.5158
24.1966	67.9589
25.4064	83.6076
25.7521	69.7785
27.1348	84.6994
27.3076	70.8703
28.6902	86.1551
29.0359	72.3259
30.2457	87.2468
30.5914	73.7816
31.8013	88.7025
32.3197	74.8734
33.5296	89.0665
33.7024	76.3291
35.2579	89.7943
36.6406	90.5222
36.9862	78.8766
38.5417	91.25
39.9244	91.9778
40.0972	81.0601
41.3071	93.0696
41.8256	82.5158
43.2082	94.1614
43.3811	83.9715
44.7637	94.8892
44.9366	84.6994
46.3192	95.6171
46.6649	86.1551
47.8747	95.981
48.2204	87.2468
49.603	96.3449
49.7758	88.7025
51.1586	97.0728
51.3314	89.7943
52.714	97.4367
52.8869	90.8861
54.2695	97.8006
54.788	91.6139
56.1707	98.1646
56.3435	93.0696
57.3805	98.8924
57.899	94.1614
58.936	99.2563
59.4545	95.981
60.8372	99.6203
61.01	96.7089
62.5655	98.8924
62.9112	97.8006
63.6025	99.2563
63.9482	98.8924
