Adsorption isotherm of Carbon Dioxide on [Ca2Na2(C7H2NO5)2(H2O)6]H2O
DOI: 10.1002/ejic.201403149
Article source: Figure 12
Adsorbate Carbon Dioxide: InChIKey CURLTUGMZLYLDI-UHFFFAOYSA-N
Kind: experiment
Temperature: 298 K
Tabular data in the source: 0
pressure (bar)	uptake (cm3(STP)/g)
1.38266	22.8323
1.5555	11.9146
3.11099	18.8291
3.45666	31.9304
4.66649	24.288
4.83932	36.6614
6.22198	40.3006
6.39482	27.9272
7.77749	43.5759
7.9503	30.4747
9.50581	46.4873
9.67862	33.3861
11.0613	49.0348
11.2341	35.5696
12.6168	50.8544
12.9624	37.3892
14.3451	52.3101
14.6908	39.2089
15.9006	54.1297
16.0735	40.6646
17.4561	55.5854
17.8018	42.1203
19.1844	56.3133
19.3573	43.5759
20.7399	57.769
20.9128	44.6677
22.1226	58.8608
22.6411	46.1234
23.851	59.5886
24.1966	47.2152
25.4064	60.3165
25.7521	47.943
26.9619	61.4082
27.4804	49.0348
28.8631	62.5
29.0359	49.7627
30.2457	62.8639
30.5914	50.8544
31.8013	63.2278
32.1469	51.9462
33.3568	63.9557
33.8753	53.038
35.0851	64.3196
35.4308	54.1297
36.6406	64.6835
36.9862	54.8576
38.3689	65.0475
38.5417	55.5854
39.9244	65.4114
40.0972	56.3133
41.4799	65.4114
41.8256	57.0411
43.0354	65.7753
43.3811	57.769
44.7637	66.5032
45.1094	58.1329
46.3192	66.1392
46.6649	59.2247
47.8747	66.5032
48.3932	59.9525
49.4302	66.8671
49.7758	61.0443
51.1586	66.8671
51.5042	61.7722
52.5412	67.231
53.2325	62.5
54.2695	66.8671
54.6152	62.5
55.9978	66.5032
56.5164	63.5918
57.5533	66.8671
57.899	63.9557
59.2817	67.231
59.6273	64.3196
60.8372	66.8671
61.1828	64.6835
62.3927	66.5032
62.9112	65.4114
63.6025	66.5032
64.2941	66.1392
