Adsorption isotherm of Nitrogen on [Sr3(C7H2NO5)2(H2O)9](2H2O)
DOI: 10.1002/ejic.201403149
Article source: Figure 10
Adsorbate Nitrogen: InChIKey IJGRMHOSHXDMSA-UHFFFAOYSA-N
Kind: experiment
Temperature: 77 K
Tabular data in the source: 0
pressure (bar)	uptake (cm3(STP)/g)
0.024646	628.091
0.05239	639.055
0.077347	645.652
0.099525	650.061
0.124465	652.296
0.149405	654.531
0.174336	654.586
0.199275	656.821
0.224215	659.056
0.249146	659.11
0.276855	661.351
0.299016	661.4
0.326717	661.46
0.329496	663.647
0.348887	663.689
0.373818	663.744
0.401519	663.804
0.42645	663.858
0.42922	663.864
0.448619	666.087
0.454159	666.099
0.47632	666.148
0.47909	666.154
0.498481	666.196
0.504021	666.208
0.523412	666.25
0.528952	666.263
0.548352	668.486
0.553892	668.498
0.573283	668.54
0.578823	668.552
0.598214	668.594
0.603754	668.606
0.625915	668.655
0.648076	668.703
0.675785	670.944
0.700716	670.998
0.725647	671.053
0.747808	671.101
0.772739	671.156
0.800449	673.397
0.82261	673.445
0.847541	673.499
0.875242	673.56
0.900173	673.614
0.922342	675.843
0.952813	675.91
0.974983	678.139
0.994373	678.181
0.999905	676.012
