Adsorption isotherm of Carbon Dioxide on [Sr3(C7H2NO5)2(H2O)9](2H2O)
DOI: 10.1002/ejic.201403149
Article source: Figure 12
Adsorbate Carbon Dioxide: InChIKey CURLTUGMZLYLDI-UHFFFAOYSA-N
Kind: experiment
Temperature: 273 K
Tabular data in the source: 0
pressure (bar)	uptake (cm3(STP)/g)
0.842096	19.9209
1.68419	55.5854
2.52628	41.3924
2.61985	64.6835
3.46195	71.5981
4.21048	76.3291
4.30403	53.7658
5.14613	80.6962
5.23968	57.4051
5.98823	84.3354
6.08179	61.0443
6.8303	87.2468
6.92389	63.5918
7.67241	89.7943
7.85954	66.5032
8.51451	91.9778
8.70165	68.6867
9.45016	94.1614
9.73085	71.2342
10.2923	96.3449
10.4794	73.0538
11.2279	97.8006
11.3215	75.2373
12.07	99.9842
12.2572	78.5127
12.9121	102.532
13.0992	80.6962
13.7542	103.987
13.9413	82.5158
14.6899	104.715
14.877	84.3354
15.5319	105.807
15.7191	85.7911
16.4676	106.899
16.5612	87.2468
17.2162	107.627
17.4968	88.7025
18.1518	108.718
18.2454	90.5222
18.9939	109.81
19.181	91.9778
19.836	110.538
20.0231	93.4335
20.6781	111.266
20.8652	94.8892
21.7073	111.266
21.8009	95.981
22.4558	111.63
22.643	97.4367
23.3915	111.994
23.5786	99.2563
24.14	112.358
24.4207	100.348
25.0757	112.722
25.1693	101.44
26.0114	112.722
26.1049	102.168
26.6663	113.085
26.947	103.987
27.6956	113.449
27.8827	105.443
28.6312	113.813
28.7248	106.899
29.6604	114.177
30.2218	114.177
30.5025	109.082
31.1575	114.905
31.3446	110.902
31.9996	115.269
32.2803	111.994
32.9352	115.269
33.0288	113.085
33.7773	115.997
34.058	113.813
34.5259	115.633
34.8067	115.633
