Adsorption isotherm of Carbon Dioxide on [Ca2Na2(C7H2NO5)2(H2O)6]H2O
DOI: 10.1002/ejic.201403149
Article source: Figure 12
Adsorbate Carbon Dioxide: InChIKey CURLTUGMZLYLDI-UHFFFAOYSA-N
Kind: experiment
Temperature: 273 K
Tabular data in the source: 0
pressure (bar)	uptake (cm3(STP)/g)
0.748527	26.1076
0.842096	12.6424
1.68419	20.6487
1.77775	35.5696
2.43272	26.8354
2.52628	41.3924
3.46195	31.9304
4.30403	34.8418
5.14613	51.9462
5.23968	37.7532
5.98823	54.4937
6.08179	40.3006
6.8303	56.6772
7.01744	42.1203
7.76599	43.9399
8.60806	59.9525
8.7952	46.1234
9.35661	61.0443
9.54375	47.5791
10.2923	62.1361
10.4794	49.0348
11.1344	63.9557
11.3215	50.1266
12.07	65.4114
12.1636	51.5823
12.9121	66.1392
13.0992	52.6741
13.7542	66.8671
13.9413	54.1297
14.6899	67.9589
14.877	54.8576
15.5319	68.3228
15.6255	55.9494
16.3741	69.0506
16.4676	57.4051
17.3097	69.7785
17.4033	58.1329
18.0583	70.5063
18.2454	59.2247
18.9939	71.2342
19.181	60.3165
19.9296	71.962
20.1167	61.0443
20.7717	72.3259
20.8652	62.5
21.7073	73.0538
21.8009	63.2278
22.4558	73.4177
22.643	63.9557
23.2979	74.1456
23.5786	65.0475
24.2336	74.5095
24.4207	65.7753
25.0757	74.8734
25.2628	66.5032
25.9178	75.2373
26.1049	67.231
26.7599	75.2373
27.1341	67.9589
27.6956	75.9652
27.8827	68.3228
28.5376	75.6013
28.7248	69.4146
29.3797	75.9652
29.5669	69.7785
30.3154	75.6013
30.5961	70.8703
31.1575	76.3291
31.4382	71.962
32.0931	76.3291
32.1867	72.6899
32.8417	76.3291
33.0288	73.7816
33.7773	75.9652
34.058	74.5095
34.4323	75.2373
34.8067	75.2373
