Adsorption isotherm of Hydrogen on [Sr3(C7H2NO5)2(H2O)9](2H2O)
DOI: 10.1002/ejic.201403149
Article source: Figure 11
Adsorbate Hydrogen: InChIKey UFHFLCQGNIYNRP-UHFFFAOYSA-N
Kind: experiment
Temperature: 77 K
Tabular data in the source: 0
pressure (bar)	uptake (cm3(STP)/g)
0.098143	117.313
0.100796	126.269
0.151194	127.761
0.198939	141.94
0.201592	134.851
0.249337	147.537
0.251989	141.567
0.299735	147.537
0.352785	152.388
0.400531	158.731
0.450928	162.463
0.498674	164.328
0.501326	161.716
0.551724	166.94
0.554377	164.328
0.602122	168.806
0.65252	168.806
0.700265	172.91
0.750663	174.776
0.753316	173.284
0.801061	176.269
0.803714	174.776
0.854111	177.015
0.901857	180
0.952255	181.119
0.954907	181.119
0.994695	182.239
1	181.866
