Adsorption isotherm of Ammonia on COF-10
DOI: 10.1038/Nchem.548
Adsorbate Ammonia: InChIKey QGZKDVFQNNGYKY-UHFFFAOYSA-N
Temperature: 298 K
Tabular data in the source: 0
pressure (bar)	uptake (cm3(STP)/g)
0.00656653	3.83903
0.0111985	37.9231
0.0227783	60.8642
0.0482539	84.4609
0.0806774	104.125
0.131629	123.133
0.215004	144.108
0.307642	162.461
0.407229	179.503
0.506815	194.579
0.659669	218.175
0.768519	231.94
0.868106	241.772
0.988536	251.604
