Adsorption isotherm of Ammonia on MCM-41
DOI: 10.1038/Nchem.548
Adsorbate Ammonia: InChIKey QGZKDVFQNNGYKY-UHFFFAOYSA-N
Temperature: 298 K
Tabular data in the source: 0
pressure (bar)	uptake (mmol/g)
0.00698029	2.1195
0.016076	2.7602
0.0312355	3.30938
0.0554907	3.72126
0.0979374	4.15602
0.179799	4.7052
0.26166	5.18573
0.369293	5.66625
0.435995	5.98661
0.507244	6.21543
0.604265	6.53578
0.690674	6.81037
0.772536	7.08496
0.840754	7.2909
0.904424	7.49684
0.984769	7.77142
