Adsorption isotherm of Nitrogen on COF-10
DOI: 10.1038/Nchem.548
Adsorbate Nitrogen: InChIKey IJGRMHOSHXDMSA-UHFFFAOYSA-N
Temperature: 77 K
Tabular data in the source: 0
pressure (bar)	uptake (cm3(STP)/g)
0.00139321	47.3331
0.0126608	84.5162
0.0182946	102.263
0.0337876	109.868
0.0704073	125.925
0.118295	138.601
0.174633	155.502
0.221112	169.868
0.309844	185.925
0.423928	192.685
0.512661	196.911
0.605619	201.136
0.708435	207.051
0.819703	215.502
0.929562	241.699
