Adsorption isotherm of Nitrogen on COF-10
DOI: 10.1038/Nchem.548
Adsorbate Nitrogen: InChIKey IJGRMHOSHXDMSA-UHFFFAOYSA-N
Temperature: 77 K
Tabular data in the source: 0
pressure (bar)	uptake (cm3(STP)/g)
0.00561856	98.887
0.00561856	143.253
0.0168862	234.521
0.035196	276.352
0.0689988	310.577
0.123928	357.479
0.16759	396.774
0.219703	466.493
0.297168	631.281
0.532379	664.239
0.618295	670.577
0.70421	674.38
0.819703	687.056
0.925337	701
