Adsorption isotherm of Ammonia on COF-10
DOI: 10.1038/Nchem.548
Adsorbate Ammonia: InChIKey QGZKDVFQNNGYKY-UHFFFAOYSA-N
Temperature: 298 K
Tabular data in the source: 0
pressure (bar)	uptake (cm3(STP)/g)
0.00546434	45.7472
0.0130441	60.3347
0.0297196	76.6383
0.0494269	93.8
0.0751981	109.675
0.131288	129.84
0.154028	136.275
0.219214	152.15
0.258628	158.156
0.308655	166.308
0.373841	175.747
0.505728	194.196
0.607297	207.067
0.687643	214.79
0.772536	222.513
0.869557	231.952
0.927163	237.529
0.989317	242.249
