Adsorption isotherm of Ammonia on COF-10
DOI: 10.1038/Nchem.548
Adsorbate Ammonia: InChIKey QGZKDVFQNNGYKY-UHFFFAOYSA-N
Temperature: 298 K
Tabular data in the source: 0
pressure (bar)	uptake (cm3(STP)/g)
0.0119275	6.90674
0.0343219	19.7236
0.0477585	51.7659
0.0611951	67.0476
0.0731388	78.8786
0.110463	93.6673
0.152266	106.484
0.220942	124.724
0.259759	135.076
0.307533	143.949
0.36128	159.231
0.431449	176.484
0.504604	216.414
0.561336	254.864
0.604632	278.526
0.658378	294.794
0.721082	306.625
0.783787	313.526
0.867392	323.879
0.925618	330.78
0.970406	336.695
1.0137	340.639
