Adsorption isotherm of Nitrogen on COF-10
DOI: 10.1038/Nchem.548
Adsorbate Nitrogen: InChIKey IJGRMHOSHXDMSA-UHFFFAOYSA-N
Temperature: 77 K
Tabular data in the source: 0
pressure (bar)	uptake (cm3(STP)/g)
0.00421011	146.206
0.0197031	186.77
0.0408298	213.812
0.063365	233.249
0.0887171	250.15
0.118295	267.051
0.173224	304.234
0.218295	341.418
0.301393	435.22
0.525337	464.798
0.609844	470.713
0.726745	482.544
0.816886	492.685
0.930971	516.347
