Adsorption isotherm of Ammonia on COF-10
DOI: 10.1038/Nchem.548
Adsorbate Ammonia: InChIKey QGZKDVFQNNGYKY-UHFFFAOYSA-N
Temperature: 298 K
Tabular data in the source: 0
pressure (bar)	uptake (cm3(STP)/g)
0.0014768	1.48421
0.0104345	16.2729
0.0268571	29.5828
0.0611951	55.2166
0.0970261	81.8363
0.152266	110.921
0.216463	140.005
0.256773	156.766
0.304547	171.555
0.397111	196.695
0.46728	219.864
0.510575	236.132
0.601646	275.569
0.665843	289.865
0.73004	302.188
0.771843	308.104
0.844998	317.963
0.904716	324.865
0.928604	328.808
0.989815	335.71
