Adsorption isotherm of Ammonia on Amberlyst 15
DOI: 10.1038/Nchem.548
Adsorbate Ammonia: InChIKey QGZKDVFQNNGYKY-UHFFFAOYSA-N
Temperature: 298 K
Tabular data in the source: 0
pressure (bar)	uptake (mmol/g)
0.00394839	0.975385
0.0100122	6.23831
0.0494269	8.00025
0.0767141	8.45789
0.107033	8.84689
0.158575	9.23589
0.222245	9.57913
0.320782	9.89948
0.448122	10.1969
0.554239	10.38
0.661871	10.5173
0.781632	10.6775
0.852881	10.7232
0.927163	10.7919
1.01206	10.8834
