Adsorption isotherm of Nitrogen on COF-10
DOI: 10.1038/Nchem.548
Adsorbate Nitrogen: InChIKey IJGRMHOSHXDMSA-UHFFFAOYSA-N
Temperature: 77 K
Tabular data in the source: 0
pressure (bar)	uptake (cm3(STP)/g)
0.00139321	125.08
0.0211115	163.953
0.035196	182.544
0.0675904	201.136
0.118295	225.643
0.176041	256.911
0.22252	283.108
0.312661	327.051
0.483083	342.263
0.516886	344.798
0.599985	349.868
0.711252	358.319
0.819703	370.15
0.926745	395.502
