Adsorption isotherm of Ammonia on Zeolite 13X
DOI: 10.1038/Nchem.548
Adsorbate Ammonia: InChIKey QGZKDVFQNNGYKY-UHFFFAOYSA-N
Temperature: 298 K
Tabular data in the source: 0
pressure (bar)	uptake (mmol/g)
0.01456	6.44425
0.0494269	7.22225
0.07823	7.61125
0.129772	7.95448
0.179799	8.18331
0.220729	8.38925
0.31775	8.54942
0.375357	8.68672
0.446606	8.77825
0.510276	8.86977
0.604265	9.00707
0.717962	9.0986
0.783148	9.14436
0.846817	9.19013
0.928679	9.23589
1.01357	9.30454
