Adsorption isotherm of Ammonia on COF-10
DOI: 10.1038/Nchem.548
Adsorbate Ammonia: InChIKey QGZKDVFQNNGYKY-UHFFFAOYSA-N
Temperature: 298 K
Tabular data in the source: 0
pressure (bar)	uptake (cm3(STP)/g)
0.0152996	25.1536
0.0390174	45.2913
0.0556198	57.3739
0.0935681	78.1828
0.150491	102.348
0.221644	119.129
0.307028	138.596
0.397155	157.391
0.47068	172.83
0.691255	223.174
0.769523	238.613
0.835933	248.011
0.899971	255.395
0.982983	263.45
