Adsorption isotherm of Ammonia on COF-10
DOI: 10.1038/Nchem.548
Adsorbate Ammonia: InChIKey QGZKDVFQNNGYKY-UHFFFAOYSA-N
Temperature: 298 K
Tabular data in the source: 0
pressure (bar)	uptake (mmol/g)
0.00243244	0.0600937
0.0312355	0.860974
0.0403312	1.45591
0.0494269	2.5085
0.0721662	3.2865
0.110065	4.08738
0.181315	5.0942
0.305623	6.35272
0.411739	7.56548
0.504212	9.53336
0.558787	11.2724
0.605781	12.2792
0.661871	13.1488
0.724025	13.6293
0.783148	14.0412
0.848333	14.2929
0.930195	14.6361
0.989317	15.0022
