Adsorption isotherm of Nitrogen on COF-10
DOI: 10.1038/Nchem.548
Adsorbate Nitrogen: InChIKey IJGRMHOSHXDMSA-UHFFFAOYSA-N
Temperature: 77 K
Tabular data in the source: 0
pressure (bar)	uptake (cm3(STP)/g)
0.00280166	119.169
0.00421011	163.535
0.00984391	234.521
0.0211115	290.295
0.0366045	325.788
0.0647735	362.549
0.0887171	384.098
0.116886	418.324
0.178858	480.436
0.215478	555.225
0.308435	733.957
0.512661	766.915
0.611252	778.324
0.709844	787.197
0.819703	798.605
0.925337	813.817
