Adsorption isotherm of Nitrogen on COF-10
DOI: 10.1038/Nchem.548
Adsorbate Nitrogen: InChIKey IJGRMHOSHXDMSA-UHFFFAOYSA-N
Temperature: 77 K
Tabular data in the source: 0
pressure (bar)	uptake (cm3(STP)/g)
0.00139321	86.2063
0.00984391	113.249
0.02252	131.84
0.035196	142.826
0.0675904	160.573
0.0957594	172.404
0.171816	202.826
0.218295	222.263
0.302802	247.615
0.445055	258.601
0.509844	261.981
0.602802	263.671
0.708435	272.122
0.811252	278.882
0.932379	303.389
