Adsorption isotherm of Nitrogen on DCuPc-APDI-COF
DOI: 10.1021/jacs.5b03553
Article source: Figure 5E
Adsorbate Nitrogen: InChIKey IJGRMHOSHXDMSA-UHFFFAOYSA-N
Kind: experiment
Temperature: 77 K
Tabular data in the source: 0
pressure (bar)	uptake (cm3(STP)/g)
0.01093	21.6299
0.032539	62.2359
0.046191	74.4249
0.076465	79.3254
0.106722	85.8492
0.134239	90.7469
0.161757	95.6445
0.186517	100.539
0.20852	105.432
0.236011	112.764
0.255248	118.465
0.279936	129.854
0.304598	143.677
0.359669	150.226
0.409243	155.146
0.467107	158.45
0.513915	164.179
0.558002	166.658
0.621344	173.215
0.668161	178.132
0.720466	185.49
0.770022	192.033
0.816786	201.82
0.871803	213.239
0.907511	225.45
0.956834	253.097
0.973135	275.028
0.986778	288.029
0.994772	313.199
0.011027	65.9389
0.099604	94.7598
0.121783	100.873
0.140906	102.62
0.175842	109.607
0.204442	114.847
0.226705	118.341
0.318311	152.402
0.27426	130.568
0.385351	155.022
0.417315	155.022
0.490469	166.376
0.515956	168.996
0.563622	177.729
0.643476	179.476
0.707124	188.21
0.770912	192.576
0.799428	200.437
0.866412	204.803
0.949099	217.904
0.980393	238.865
1.00841	262.445
1.02397	275.546
1.03614	294.76
1.05793	313.1
