Adsorption isotherm of Nitrogen on DCuPc-ANDI-COF
DOI: 10.1021/jacs.5b03553
Article source: Figure 5C
Adsorbate Nitrogen: InChIKey IJGRMHOSHXDMSA-UHFFFAOYSA-N
Kind: experiment
Temperature: 77 K
Tabular data in the source: 0
pressure (bar)	uptake (cm3(STP)/g)
0.011224	16.9748
0.013908	48.842
0.015826	242.654
0.046714	303.817
0.057976	319.783
0.077728	338.432
0.103136	359.754
0.134212	381.094
0.151104	405.044
0.179308	434.339
0.204678	463.626
0.224292	511.478
0.232293	617.699
0.243379	670.833
0.280212	673.608
0.314197	679.029
0.362335	688.479
0.421835	692.656
0.464311	700.76
0.515314	703.582
0.571999	703.767
0.622964	714.554
0.67398	714.721
0.724984	717.543
0.770306	723.001
0.818463	728.468
0.863798	731.272
0.917523	757.996
0.957077	784.674
0.987488	946.721
0.973881	827.207
0.020606	239.657
0.111101	373.052
0.217476	477.967
0.266575	665.507
0.298716	679.635
0.353271	688.012
0.388557	690.757
0.558604	710.185
0.632368	712.822
0.690114	718.347
0.72543	726.778
0.773557	732.331
0.847275	726.436
0.953285	763.106
1.02086	808.414
1.02451	890.868
1.06009	947.64
