Adsorption isotherm of Nitrogen on DCuPc-APyrDI-COF
DOI: 10.1021/jacs.5b03553
Article source: Figure 5A
Adsorbate Nitrogen: InChIKey IJGRMHOSHXDMSA-UHFFFAOYSA-N
Kind: experiment
Temperature: 77 K
Tabular data in the source: 0
pressure (bar)	uptake (cm3(STP)/g)
0.0027	13.2296
0.002519	31.9066
0.01228	223.346
0.038048	260.7
0.075587	281.712
0.098588	305.058
0.127508	316.732
0.153479	333.074
0.176525	351.751
0.196622	375.097
0.219555	405.447
0.233258	489.494
0.241335	554.864
0.264494	561.868
0.284817	561.868
0.313804	566.537
0.354383	573.541
0.421068	582.879
0.47335	580.545
0.522683	582.879
0.566188	587.549
0.615521	589.883
0.664877	589.883
0.722898	594.553
0.775157	594.553
0.821565	599.222
0.87083	608.56
0.920141	613.23
0.972242	629.572
0.983562	659.922
0.997649	704.28
0.99931	832.685
0.007272	166.697
0.090396	268.615
0.119118	294.075
0.147799	311.875
0.163748	324.6
0.18609	344.97
0.230774	385.708
0.237343	426.543
0.244034	490.356
0.298369	554.049
0.333402	571.833
0.365138	566.646
0.409593	563.981
0.450912	568.983
0.476322	568.919
0.539861	571.312
0.635299	599.157
0.70515	593.875
0.759187	601.398
0.816374	603.807
0.844974	606.288
0.892632	608.721
0.953117	634.101
1.00813	825.452
