Adsorption isotherm of Nitrogen on DNiPc-ANDI-COF
DOI: 10.1021/jacs.5b03553
Article source: Figure 5D
Adsorbate Nitrogen: InChIKey IJGRMHOSHXDMSA-UHFFFAOYSA-N
Kind: experiment
Temperature: 77 K
Tabular data in the source: 0
pressure (bar)	uptake (cm3(STP)/g)
0.014372	12.8942
0.014372	38.4261
0.031619	210.812
0.05174	236.397
0.077611	253.486
0.106355	276.965
0.132226	298.31
0.155221	313.264
0.181091	332.481
0.215585	362.359
0.227083	411.325
0.241455	443.277
0.247204	498.612
0.278823	505.078
0.307568	507.281
0.367932	509.567
0.416798	513.951
0.474287	516.229
0.51453	522.718
0.569145	527.116
0.626634	525.14
0.669751	523.125
0.718617	529.636
0.773232	536.163
0.822098	540.546
0.868089	544.922
0.922704	562.087
0.957198	596.22
0.980194	634.578
1.00319	753.788
0.022065	175.888
0.045122	245.294
0.142606	300.154
0.206355	350.302
0.236227	412.507
0.249252	469.961
0.367123	510.401
0.407654	510.306
0.458277	514.976
0.515696	514.841
0.576492	514.697
0.664268	519.28
0.735218	516.717
0.78578	528.573
0.890303	549.883
0.944081	580.894
0.984328	614.332
1.02423	688.489
1.03376	760.323
