Adsorption isotherm of Nitrogen on DZnPc-APDI-COF
DOI: 10.1021/jacs.5b03553
Article source: Figure 5F
Adsorbate Nitrogen: InChIKey IJGRMHOSHXDMSA-UHFFFAOYSA-N
Kind: experiment
Temperature: 77 K
Tabular data in the source: 0
pressure (bar)	uptake (cm3(STP)/g)
0.011234	22.3895
0.014139	31.732
0.034311	84.9798
0.062187	93.3588
0.078908	98.0125
0.109561	106.388
0.134622	111.967
0.162473	118.477
0.187535	124.055
0.212609	130.569
0.260047	148.271
0.239072	137.08
0.282489	165.067
0.315956	176.244
0.363239	182.731
0.416034	186.409
0.471645	192.887
0.518901	197.505
0.571736	203.986
0.619031	211.408
0.671866	217.89
0.719174	226.246
0.769246	233.665
0.822158	245.754
0.866729	256.917
0.917021	280.224
0.961787	305.406
0.995566	339.012
1.00135	355.827
0.017449	70.7468
0.091574	105.721
0.147592	109.223
0.229513	127.209
0.240617	133.243
0.270303	145.293
0.299785	168.253
0.37434	180.196
0.456396	190.909
0.542305	195.552
0.5908	201.496
0.672902	209.785
0.725068	219.357
0.784667	231.335
0.821876	240.943
0.874042	250.516
0.929879	263.715
0.979813	292.687
1.01871	311.988
1.04425	345.866
1.06267	360.367
