Adsorption isotherm of Nitrogen on DNiPc-APyrDI-COF
DOI: 10.1021/jacs.5b03553
Article source: Figure 5B
Adsorbate Nitrogen: InChIKey IJGRMHOSHXDMSA-UHFFFAOYSA-N
Kind: experiment
Temperature: 77 K
Tabular data in the source: 0
pressure (bar)	uptake (cm3(STP)/g)
0.014575	18.5873
0.014695	39.3483
0.030172	212.326
0.059212	227.835
0.085366	245.08
0.114356	251.938
0.134671	260.545
0.157901	272.607
0.186961	291.576
0.210241	312.287
0.230746	353.766
0.245741	443.699
0.263161	452.313
0.289226	453.987
0.312386	453.938
0.364515	457.287
0.425309	457.157
0.477439	460.506
0.526653	460.401
0.581697	467.204
0.628042	471.43
0.680156	472.184
0.726506	477.275
0.77577	485.821
0.82797	501.28
0.877234	509.826
0.926559	528.752
0.973029	554.604
0.999253	583.96
1.00522	615.089
0.027786	176.334
0.040154	190.54
0.253446	362.899
0.261019	403.693
0.519928	467.976
0.558368	471.589
0.626192	473.481
0.667579	477.099
0.706238	486.032
0.765372	491.455
0.818614	496.867
0.869568	518.233
0.931867	528.98
0.970966	548.552
0.995847	580.51
1.0236	610.701
