Adsorption isotherm of Hydrogen on IRMOF-1
DOI: 10.1016/j.micromeso.2013.11.015
Adsorbate Hydrogen: InChIKey UFHFLCQGNIYNRP-UHFFFAOYSA-N
Temperature: 295 K
Tabular data in the source: 0
pressure (bar)	uptake (mmol/g)
4.58333	0.00733333
6.66667	0.170667
8.75	0.334
10.625	0.497
12.7083	0.820333
14.5833	0.983333
16.6667	1.14667
18.5417	1.46967
20.625	1.633
22.7083	1.79633
24.5833	2.11933
26.6667	2.28267
28.75	2.446
30.625	2.769
32.7083	2.93233
34.5833	3.09533
36.4583	3.41833
38.5417	3.58167
40.625	3.905
42.7083	4.06833
44.5833	4.39133
46.6667	4.39467
48.5417	4.71767
50.625	4.881
52.7083	5.20433
54.5833	5.36733
56.6667	5.69067
58.75	6.014
60.8333	6.01733
62.7083	6.50033
64.7917	6.50367
66.6667	6.82667
68.75	7.15
70.625	7.313
72.7083	7.47633
74.7917	7.79967
76.6667	7.96267
78.75	8.126
80.4167	8.44867
82.5	8.452
84.5833	8.77533
86.6667	8.93867
88.5417	9.10167
90.625	9.265
92.7083	9.58833
94.5833	9.75133
96.6667	10.0747
98.75	10.078
