Adsorption isotherm of Hydrogen on IRMOF-1
DOI: 10.1016/j.micromeso.2013.11.015
Adsorbate Hydrogen: InChIKey UFHFLCQGNIYNRP-UHFFFAOYSA-N
Temperature: 138 K
Tabular data in the source: 0
pressure (bar)	uptake (g/l)
3.90278	1.25899
5.38879	1.59472
6.87524	2.01439
8.54723	2.43405
9.4762	2.68585
10.9622	3.02158
12.4482	3.35731
13.9342	3.69305
15.4207	4.11271
16.9067	4.44844
18.5782	4.78417
20.0638	5.03597
21.5498	5.3717
23.0363	5.79137
24.7074	6.04317
26.1938	6.46283
27.6794	6.71463
29.3509	7.05036
31.0225	7.38609
32.6935	7.63789
34.1796	7.97362
35.6656	8.30935
37.1511	8.56115
38.8227	8.89688
40.3082	9.14868
41.9798	9.48441
43.4658	9.82014
44.9513	10.0719
46.808	10.3237
48.2935	10.5755
49.9646	10.8273
51.6362	11.1631
53.3073	11.4149
54.9784	11.6667
56.6499	12.0024
58.3214	12.3381
59.807	12.5899
61.4785	12.9257
63.1492	13.0935
64.8207	13.4293
66.4923	13.765
67.9778	14.0168
69.4634	14.2686
71.32	14.5204
72.9911	14.7722
74.8477	15.024
76.5188	15.2758
78.1904	15.6115
79.861	15.7794
80.604	15.9472
82.2751	16.199
83.9462	16.4508
85.6173	16.7026
87.1029	16.9544
88.774	17.2062
90.6306	17.458
92.3012	17.6259
93.9728	17.9616
95.6434	18.1295
97.1294	18.4652
98.986	18.717
