Adsorption isotherm of Hydrogen on IRMOF-1
DOI: 10.1016/j.micromeso.2013.11.015
Adsorbate Hydrogen: InChIKey UFHFLCQGNIYNRP-UHFFFAOYSA-N
Temperature: 138 K
Tabular data in the source: 0
pressure (bar)	uptake (mmol/g)
1.57176	0.951155
4.71113	2.21687
11.3781	4.26992
13.143	4.82274
20.1988	6.47698
23.5297	7.10563
31.3667	8.51928
35.6766	9.22518
44.6857	10.3177
47.8183	10.549
58.1962	11.4791
60.9375	11.7113
71.3138	12.4027
73.6621	12.3971
85.2105	12.7674
86.7771	12.9228
99.3029	13.1316
