Adsorption isotherm of Hydrogen on IRMOF-1
DOI: 10.1016/j.micromeso.2013.11.015
Adsorbate Hydrogen: InChIKey UFHFLCQGNIYNRP-UHFFFAOYSA-N
Temperature: 403 K
Tabular data in the source: 0
pressure (bar)	uptake (wt%)
17.0836	4.69164
24.287	5.03076
33.6609	5.10959
44.3622	5.07729
55.9982	5.01639
73.5622	4.85999
98.759	4.58896
