Adsorption isotherm of Hydrogen on IRMOF-1
DOI: 10.1016/j.micromeso.2013.11.015
Adsorbate Hydrogen: InChIKey UFHFLCQGNIYNRP-UHFFFAOYSA-N
Temperature: 295 K
Tabular data in the source: 0
pressure (bar)	uptake (mmol/g)
13.5069	0.60436
15.66	0.678796
25.6413	0.814119
30.7309	1.0407
42.2787	1.33143
46.5845	1.40073
58.5237	1.69053
61.6548	1.68305
74.9644	2.04916
77.3117	1.8844
91.2089	2.32868
93.1664	2.40358
