Adsorption isotherm of Hydrogen on IRMOF-1
DOI: 10.1016/j.micromeso.2013.11.015
Adsorbate Hydrogen: InChIKey UFHFLCQGNIYNRP-UHFFFAOYSA-N
Temperature: 295 K
Tabular data in the source: 0
pressure (bar)	uptake (wt%)
13.0296	4.94569
18.6516	5.42133
27.9125	5.57631
38.5703	5.59161
50.0476	5.54659
92.4275	5.15725
118.426	4.89252
