Adsorption isotherm of Hydrogen on IRMOF-1
DOI: 10.1016/j.micromeso.2013.11.015
Adsorbate Hydrogen: InChIKey UFHFLCQGNIYNRP-UHFFFAOYSA-N
Temperature: 295 K
Tabular data in the source: 0
pressure (bar)	uptake (g/l)
5.19658	0.335731
7.05276	0.503597
8.72297	0.58753
10.2085	0.839329
12.0643	0.923261
13.7349	1.09113
15.5906	1.17506
17.4468	1.34293
19.117	1.42686
20.9732	1.59472
22.6443	1.84652
24.4996	1.84652
26.1702	2.01439
28.0264	2.18225
29.6971	2.35012
31.3673	2.43405
33.2234	2.60192
34.8945	2.85372
36.5647	2.93765
38.2354	3.10552
40.0911	3.18945
41.7618	3.35731
43.6175	3.44125
45.4737	3.60911
47.1439	3.69305
48.815	3.94484
50.6712	4.11271
52.3414	4.19664
54.1975	4.36451
56.0533	4.44844
57.5384	4.61631
59.3941	4.70024
61.2503	4.86811
62.9209	5.03597
64.7767	5.1199
66.4478	5.3717
68.3031	5.3717
69.9742	5.6235
71.6448	5.79137
73.5005	5.8753
75.1712	6.04317
77.0269	6.1271
78.8831	6.29496
80.5537	6.46283
82.2244	6.6307
84.0806	6.79856
85.9363	6.88249
87.6069	7.05036
89.2771	7.13429
90.9478	7.30216
92.8035	7.38609
94.4742	7.55396
96.3299	7.63789
98.0006	7.80576
99.8563	7.88969
