Adsorption isotherm of Hydrogen on IRMOF-1
DOI: 10.1016/j.micromeso.2013.11.015
Adsorbate Hydrogen: InChIKey UFHFLCQGNIYNRP-UHFFFAOYSA-N
Temperature: 200 K
Tabular data in the source: 0
pressure (bar)	uptake (mmol/g)
3.5266	0.628186
11.9471	1.48342
26.0452	2.72297
40.1412	3.64423
51.496	4.3333
54.6286	4.56455
66.5699	5.17264
68.9188	5.24661
82.0353	6.01106
83.6008	6.00732
97.8889	6.37109
