Adsorption isotherm of Hydrogen on IRMOF-1
DOI: 10.1016/j.micromeso.2013.11.015
Adsorbate Hydrogen: InChIKey UFHFLCQGNIYNRP-UHFFFAOYSA-N
Temperature: 403 K
Tabular data in the source: 0
pressure (bar)	uptake (wt%)
13.099	4.91713
19.096	5.37689
28.5475	5.51282
39.0524	5.52178
50.2817	5.47994
67.9985	5.32988
93.5445	5.02393
119.791	4.75601
