Adsorption isotherm of Hydrogen on IRMOF-1
DOI: 10.1016/j.micromeso.2013.11.015
Adsorbate Hydrogen: InChIKey UFHFLCQGNIYNRP-UHFFFAOYSA-N
Temperature: 77 K
Tabular data in the source: 0
pressure (bar)	uptake (mmol/g)
0.833333	5.28133
1.25	6.722
1.66667	8.32267
2.08333	9.76333
2.5	11.364
3.125	12.645
3.54167	14.2457
4.16667	15.6867
5	16.968
5.625	18.409
6.66667	19.6907
7.5	21.132
8.75	22.894
10	24.016
11.0417	25.2977
12.2917	26.5797
13.5417	27.7017
14.7917	28.8237
16.25	29.946
17.7083	30.9083
18.9583	32.0303
20.625	32.993
22.0833	33.9553
23.5417	34.7577
25.2083	35.8803
26.875	36.523
28.3333	37.4853
30	38.288
31.6667	38.9307
33.3333	39.7333
35	40.536
36.6667	41.3387
38.5417	41.9817
40.2083	42.6243
42.0833	43.4273
43.9583	43.9103
45.625	44.713
47.5	45.196
49.1667	45.8387
51.0417	46.3217
52.9167	46.9647
54.7917	47.4477
56.6667	48.0907
58.5417	48.5737
60.4167	49.0567
62.2917	49.5397
64.1667	50.0227
65.8333	50.5053
67.7083	50.9883
69.375	51.471
71.4583	51.9543
73.3333	52.2773
75.2083	52.7603
77.0833	53.2433
78.9583	53.5663
80.625	54.049
82.7083	54.3723
84.5833	54.6953
86.4583	55.1783
88.5417	55.5017
90.4167	55.9847
92.2917	56.3077
94.375	56.631
96.25	57.114
98.125	57.597
