Adsorption isotherm of Hydrogen on IRMOF-1
DOI: 10.1016/j.micromeso.2013.11.015
Adsorbate Hydrogen: InChIKey UFHFLCQGNIYNRP-UHFFFAOYSA-N
Temperature: 118 K
Tabular data in the source: 0
pressure (bar)	uptake (g/l)
3.71947	3.71947
5.0204	2.09832
6.32177	2.60192
7.80867	3.10552
9.29512	3.52518
10.5965	4.02878
11.8974	4.44844
13.569	4.78417
15.0559	5.28777
16.5423	5.70743
19.5152	6.54676
21.1872	6.96643
21.5587	7.05036
23.0447	7.38609
24.7167	7.80576
26.3882	8.14149
27.5036	8.56115
29.1752	8.89688
30.8472	9.31655
32.3327	9.56835
33.6336	9.98801
35.1197	10.3237
36.7908	10.5755
38.2768	10.9113
39.9487	11.3309
41.6203	11.6667
43.2918	12.0024
44.7783	12.4221
46.2643	12.7578
47.9354	13.0096
49.6069	13.3453
51.0934	13.765
52.95	14.0168
54.436	14.3525
55.9216	14.6043
57.408	15.024
59.0791	15.2758
60.7502	15.5276
62.4218	15.8633
64.0933	16.199
65.5793	16.5348
67.2504	16.7866
68.736	17.0384
70.4075	17.3741
72.0786	17.6259
73.7501	17.9616
75.4217	18.2974
77.0928	18.5492
78.7647	18.9688
80.2503	19.2206
81.7359	19.4724
83.407	19.7242
85.2636	19.976
86.7492	20.2278
88.2347	20.4796
89.7203	20.7314
91.3914	20.9832
92.8774	21.3189
94.734	21.5707
96.4051	21.8225
97.8911	22.1583
