Adsorption isotherm of Hydrogen on IRMOF-1
DOI: 10.1016/j.micromeso.2013.11.015
Adsorbate Hydrogen: InChIKey UFHFLCQGNIYNRP-UHFFFAOYSA-N
Temperature: 200 K
Tabular data in the source: 0
pressure (bar)	uptake (g/l)
5.19836	0.671463
6.86946	0.923261
8.54055	1.17506
10.2112	1.34293
11.8827	1.67866
13.5534	1.84652
15.2245	2.09832
17.0811	2.35012
18.5667	2.60192
20.4228	2.76978
21.9089	3.10552
23.5791	3.18945
25.2502	3.44125
26.9212	3.69305
28.5919	3.86091
30.0775	4.11271
31.7486	4.36451
33.6047	4.53237
35.2754	4.70024
36.9465	4.95204
38.6176	5.20384
40.4737	5.3717
41.2172	5.6235
43.0734	5.79137
44.5589	6.04317
46.4147	6.1271
48.0858	6.3789
49.9424	6.6307
51.613	6.79856
53.2841	7.05036
54.7697	7.30216
56.6254	7.38609
58.2965	7.63789
59.9672	7.80576
61.6383	8.05755
63.3085	8.14149
64.9796	8.39329
66.6506	8.64508
68.3213	8.81295
70.1775	8.98082
72.0337	9.14868
73.7047	9.40048
75.3754	9.56835
77.0465	9.82014
78.7176	10.0719
80.3878	10.1559
82.244	10.3237
83.9151	10.5755
85.5862	10.8273
87.4419	10.9113
89.1125	11.0791
90.9692	11.3309
92.6398	11.4988
94.496	11.6667
96.1666	11.8345
97.8377	12.0863
99.5084	12.2542
