Adsorption isotherm of Hydrogen on IRMOF-1
DOI: 10.1016/j.micromeso.2013.11.015
Adsorbate Hydrogen: InChIKey UFHFLCQGNIYNRP-UHFFFAOYSA-N
Temperature: 103 K
Tabular data in the source: 0
pressure (bar)	uptake (mmol/g)
1.66667	3.20267
2.5	4.484
3.33333	5.92533
4.375	7.207
5.41667	8.48867
6.66667	9.61067
7.91667	10.8927
9.16667	12.0147
10.4167	13.1367
12.0833	14.2593
13.5417	15.2217
15	16.184
16.25	17.146
17.9167	18.1087
19.375	18.911
21.0417	19.8737
22.5	20.836
24.1667	21.4787
25.8333	22.2813
27.2917	23.0837
29.1667	23.7267
30.625	24.529
32.5	25.332
34.1667	25.8147
36.0417	26.4577
37.9167	27.2607
39.7917	27.9037
41.4583	28.5463
43.5417	29.1897
45.2083	29.6723
47.0833	30.3153
48.75	30.798
50.625	31.441
52.5	32.084
54.5833	32.5673
56.4583	33.0503
58.3333	33.5333
60	34.016
61.875	34.499
63.75	34.982
65.625	35.465
67.2917	35.9477
69.375	36.431
71.25	36.754
73.125	37.237
75	37.72
76.875	38.203
78.9583	38.5263
80.8333	39.0093
82.7083	39.4923
84.5833	39.8153
86.6667	40.1387
88.5417	40.6217
90.625	41.105
92.5	41.428
94.5833	41.7513
96.4583	42.0743
98.5417	42.3977
