Adsorption isotherm of Hydrogen on IRMOF-1
DOI: 10.1016/j.micromeso.2013.11.015
Adsorbate Hydrogen: InChIKey UFHFLCQGNIYNRP-UHFFFAOYSA-N
Temperature: 295 K
Tabular data in the source: 0
pressure (bar)	uptake (wt%)
15.0496	4.78694
20.2071	5.26577
29.3035	5.45884
66.3713	5.40611
91.3917	5.21759
117.742	5.02582
