Adsorption isotherm of Hydrogen on IRMOF-1
DOI: 10.1016/j.micromeso.2013.11.015
Adsorbate Hydrogen: InChIKey UFHFLCQGNIYNRP-UHFFFAOYSA-N
Temperature: 103 K
Tabular data in the source: 0
pressure (bar)	uptake (g/l)
2.42122	1.76259
3.72303	2.35012
4.83887	2.85372
6.14025	3.35731
7.25653	3.94484
8.55835	4.53237
9.85927	4.95204
11.3462	5.45564
12.6475	5.95923
13.9485	6.3789
15.4354	6.88249
16.9223	7.38609
18.4087	7.80576
19.8956	8.30935
21.3816	8.64508
22.683	9.14868
23.9839	9.56835
25.6555	9.90408
26.2129	10.0719
27.6994	10.4916
29.1854	10.8273
30.6719	11.247
32.1583	11.6667
33.6448	12.0863
35.1312	12.506
36.8028	12.8417
38.1037	13.2614
39.7752	13.5971
41.4472	14.0168
41.8187	14.1007
43.3052	14.5204
44.6052	14.7722
46.0912	15.1079
47.5777	15.5276
49.0637	15.8633
50.3637	16.1151
51.8497	16.4508
53.3357	16.7866
54.8217	17.1223
56.3078	17.458
57.7938	17.7938
59.4653	18.1295
60.9513	18.4652
62.4373	18.801
64.2948	19.2206
65.7808	19.5564
67.4524	19.8921
68.9384	20.2278
70.6099	20.5635
72.0955	20.8153
73.582	21.235
75.253	21.4868
76.9246	21.8225
78.5957	22.0743
80.0821	22.494
81.5677	22.7458
83.2388	22.9976
84.9103	23.3333
86.3963	23.6691
87.8823	24.0048
89.5534	24.2566
91.225	24.5923
92.711	24.9281
94.3821	25.1799
95.8676	25.4317
97.5392	25.7674
99.3958	26.0192
