Adsorption isotherm of Hydrogen on IRMOF-1
DOI: 10.1016/j.micromeso.2013.11.015
Adsorbate Hydrogen: InChIKey UFHFLCQGNIYNRP-UHFFFAOYSA-N
Temperature: 77 K
Tabular data in the source: 0
pressure (bar)	uptake (g/l)
0.750568	1.59472
1.31116	2.35012
1.87175	3.10552
2.61742	3.77698
3.54952	4.61631
4.48072	5.28777
5.22639	5.95923
6.52821	6.54676
7.08747	7.05036
8.20375	7.63789
9.50557	8.22542
10.6219	8.81295
11.9237	9.40048
13.04	9.98801
14.1562	10.5755
15.4576	11.0791
16.759	11.5827
17.8753	12.1703
19.1766	12.6739
20.478	13.1775
21.7794	13.6811
23.0808	14.1847
24.3817	14.6043
25.6835	15.1918
27.1704	15.6954
28.4718	16.199
29.9587	16.7026
31.4451	17.1223
32.7465	17.6259
34.0474	18.0456
35.3488	18.5492
36.6497	18.9688
37.9511	19.4724
39.438	19.976
40.924	20.3118
42.2254	20.8153
43.7118	21.235
45.0132	21.7386
46.4996	22.1583
47.9861	22.5779
49.287	22.9976
50.7735	23.4173
52.2599	23.8369
53.7464	24.2566
55.0478	24.7602
55.9763	24.9281
57.2777	25.4317
58.7637	25.7674
60.2501	26.1871
61.5511	26.6067
63.223	27.0264
64.524	27.446
66.1955	27.7818
67.4964	28.2014
68.9829	28.6211
70.6549	29.0408
72.1413	29.4604
73.6273	29.7962
74.9283	30.2158
76.5998	30.5516
77.9007	30.9712
79.3872	31.3909
81.0587	31.7266
82.3596	32.1463
84.0312	32.482
85.5172	32.8177
87.0032	33.1535
88.6752	33.5731
89.9757	33.9089
91.6472	34.2446
92.9481	34.6643
94.6192	34.9161
96.1057	35.3357
97.7772	35.6715
