Adsorption isotherm of Hydrogen on IRMOF-1
DOI: 10.1016/j.micromeso.2013.11.015
Adsorbate Hydrogen: InChIKey UFHFLCQGNIYNRP-UHFFFAOYSA-N
Temperature: 118 K
Tabular data in the source: 0
pressure (bar)	uptake (mmol/g)
1.3797	1.50864
3.93719	3.5715
10.2206	6.8191
21.0096	10.7721
32.7677	13.2905
44.5201	14.9335
56.6597	15.939
68.6006	16.4675
81.3236	16.9146
94.0441	16.9638
