Adsorption isotherm of Hydrogen on IRMOF-1
DOI: 10.1016/j.micromeso.2013.11.015
Adsorbate Hydrogen: InChIKey UFHFLCQGNIYNRP-UHFFFAOYSA-N
Temperature: 200 K
Tabular data in the source: 0
pressure (bar)	uptake (mmol/g)
4.58333	0.647333
6.66667	0.970667
8.54167	1.61367
10.4167	2.09667
12.2917	2.41967
14.1667	2.74267
15.8333	3.22533
17.7083	3.54833
19.7917	4.03167
21.6667	4.51467
23.5417	4.83767
25.4167	5.32067
27.2917	5.80367
29.1667	6.12667
31.0417	6.44967
32.9167	6.93267
35	7.256
36.875	7.739
38.75	8.062
40.625	8.385
42.7083	8.70833
44.5833	9.19133
46.4583	9.67433
48.5417	9.99767
50.4167	10.3207
52.2917	10.4837
54.375	10.967
56.25	11.29
58.3333	11.6133
60.2083	11.9363
62.2917	12.2597
64.1667	12.7427
66.25	12.906
68.3333	13.2293
70.2083	13.5523
72.2917	13.7157
74.1667	14.1987
76.25	14.362
78.125	14.845
80	15.008
82.0833	15.3313
83.9583	15.4943
85.625	15.977
87.7083	16.1403
89.7917	16.4637
91.6667	16.7867
93.5417	17.1097
95.625	17.433
97.5	17.756
99.5833	17.9193
