Adsorption isotherm of Hydrogen on IRMOF-1
DOI: 10.1016/j.micromeso.2013.11.015
Adsorbate Hydrogen: InChIKey UFHFLCQGNIYNRP-UHFFFAOYSA-N
Temperature: 103 K
Tabular data in the source: 0
pressure (bar)	uptake (mmol/g)
0.992473	2.14617
3.55827	5.48222
8.67584	10.0058
18.885	15.0743
29.6673	17.9928
41.0267	19.3981
52.5783	20.2458
63.9299	20.4575
76.0628	20.4285
