Adsorption isotherm of Hydrogen on IRMOF-1
DOI: 10.1016/j.micromeso.2013.11.015
Adsorbate Hydrogen: InChIKey UFHFLCQGNIYNRP-UHFFFAOYSA-N
Temperature: 403 K
Tabular data in the source: 0
pressure (bar)	uptake (wt%)
15.5058	4.69807
21.872	5.16415
30.1089	5.33506
40.9137	5.3789
51.9842	5.35294
68.9767	5.25368
93.4434	5.05566
118.96	4.86076
