Adsorption isotherm of Hydrogen on IRMOF-1
DOI: 10.1016/j.micromeso.2013.11.015
Adsorbate Hydrogen: InChIKey UFHFLCQGNIYNRP-UHFFFAOYSA-N
Temperature: 138 K
Tabular data in the source: 0
pressure (bar)	uptake (mmol/g)
2.08333	0.963333
3.54167	2.08567
5	3.048
6.45833	4.01033
8.125	4.973
9.58333	5.77533
11.25	6.578
13.125	7.221
14.5833	8.18333
16.25	8.826
17.9167	9.62867
19.5833	10.2713
21.4583	10.9143
23.125	11.557
25	12.2
26.6667	12.8427
28.5417	13.4857
30.2083	13.9683
31.875	14.611
33.75	15.254
35.625	15.577
37.5	16.06
39.375	16.703
41.0417	17.3457
42.9167	17.6687
44.5833	18.3113
46.6667	18.6347
48.3333	19.2773
50.2083	19.7603
52.0833	20.2433
53.9583	20.7263
55.8333	21.0493
57.7083	21.5323
59.7917	22.0157
61.6667	22.3387
63.5417	22.8217
65.625	23.305
67.5	23.628
69.375	24.111
71.25	24.594
73.3333	24.9173
75.2083	25.2403
77.0833	25.7233
79.1667	26.0467
81.0417	26.5297
82.9167	26.8527
84.7917	27.1757
86.6667	27.4987
88.5417	27.8217
90.4167	28.3047
92.5	28.628
94.375	28.951
96.25	29.274
98.125	29.597
