Adsorption isotherm of Hydrogen on IRMOF-1
DOI: 10.1016/j.micromeso.2013.11.015
Adsorbate Hydrogen: InChIKey UFHFLCQGNIYNRP-UHFFFAOYSA-N
Temperature: 77 K
Tabular data in the source: 0
pressure (bar)	uptake (mmol/g)
0.611991	3.81817
2.02076	9.78297
5.79289	18.0498
11.1139	23.7666
14.6473	25.4292
15.238	25.9848
21.7109	28.2771
24.6478	28.5088
31.5038	29.5269
34.6348	29.5194
42.6608	29.8982
45.7903	29.652
54.4012	29.711
56.7475	29.3871
65.9439	29.206
67.5074	28.8839
78.0711	28.3017
78.6577	28.2207
90.3924	27.1582
