Adsorption isotherm of Hydrogen on MOF-5 (1.5 hours activated)
DOI: 10.1016/j.micromeso.2013.11.015
Adsorbate Hydrogen: InChIKey UFHFLCQGNIYNRP-UHFFFAOYSA-N
Temperature: 403 K
Tabular data in the source: 0
pressure (bar)	uptake (wt%)
13.8291	4.84411
19.8321	5.28166
29.1048	5.39222
39.9848	5.3853
51.22	5.32125
69.159	5.14896
94.8896	4.84617
120.989	4.54971
