Adsorption isotherm of Hydrogen on IRMOF-1
DOI: 10.1016/j.micromeso.2013.11.015
Adsorbate Hydrogen: InChIKey UFHFLCQGNIYNRP-UHFFFAOYSA-N
Temperature: 118 K
Tabular data in the source: 0
pressure (bar)	uptake (mmol/g)
1.875	2.083
3.125	3.205
4.375	4.487
5.41667	5.76867
6.875	6.731
8.125	7.853
9.58333	8.81533
11.0417	9.77767
12.7083	10.7403
14.1667	11.7027
15.8333	12.5053
17.5	13.308
19.1667	14.2707
20.8333	14.9133
22.5	15.716
24.1667	16.5187
25.8333	17.3213
27.5	17.804
29.1667	18.6067
30.8333	19.0893
32.7083	19.8923
34.375	20.375
35.4167	20.8567
37.2917	21.4997
39.1667	22.1427
41.0417	22.6257
42.7083	23.2683
44.5833	23.7513
46.25	24.234
48.125	24.717
50	25.52
51.875	25.843
53.5417	26.4857
55.625	26.809
57.5	27.292
59.1667	27.7747
61.0417	28.4177
62.9167	28.9007
64.7917	29.2237
66.6667	29.5467
68.3333	30.1893
70.4167	30.5127
72.2917	30.8357
74.1667	31.3187
76.25	31.802
78.125	32.125
80	32.608
82.0833	32.9313
83.9583	33.4143
85.625	33.897
87.7083	34.2203
89.5833	34.5433
91.6667	34.8667
93.3333	35.1893
95.4167	35.5127
97.2917	35.9957
99.1667	36.3187
