Adsorption isotherm of Nitrogen on ETTA-TPA-COF
DOI: 10.1002/anie.202004728
Article source: Figure S2
Adsorbate Nitrogen: InChIKey IJGRMHOSHXDMSA-UHFFFAOYSA-N
Kind: experiment
Temperature: 77 K
Tabular data in the source: 0
pressure (bar)	uptake (cm3(STP)/g)
0.002788	5.16588
0.001762	23.0409
0.001762	42.4055
0.001762	63.2597
-0.000289	88.5826
-0.000802	115.023
0.000737	142.952
0.032014	299.731
0.047909	317.979
0.069957	339.95
0.099183	364.156
0.12482	393.203
0.143279	414.057
0.164814	472.151
0.180196	520.562
0.210448	546.258
0.226343	555.567
0.249929	562.271
0.268388	565.25
0.285821	568.974
0.306844	568.601
0.352478	573.07
0.406315	580.146
0.455539	585.359
0.505275	589.828
0.563214	595.786
0.610387	599.51
0.662174	602.862
0.712935	607.331
0.763697	614.406
0.811382	619.62
0.86163	626.695
0.908802	638.612
0.949309	656.114
0.979048	676.224
0.988277	701.547
0.999558	737.297
1.00622	776.398
1.00469	821.458
1.00469	822.203
0.994943	782.729
0.972895	711.974
0.950335	679.203
0.90829	654.625
0.849837	639.729
0.795487	632.281
0.7437	627.44
0.693451	623.716
0.641664	618.875
0.589877	611.799
0.539116	607.703
0.490405	603.234
0.439131	597.276
0.387857	591.69
0.337608	586.476
0.288385	579.401
0.244802	570.463
0.206859	559.664
0.179684	532.479
0.166865	490.398
0.133024	422.994
0.112514	403.63
0.097132	387.244
0.083801	371.976
0.064317	356.708
0.044833	336.599
0.027399	314.255
0.017657	295.635
0.013043	273.291
0.008428	253.927
0.004839	231.583
0.001762	213.708
0.000737	200.674
0.000224	186.895
-0.000289	173.489
-0.000289	159.71
0.000224	131.036
-0.000289	104.223
0.001249	79.6451
0.000737	57.3013
0.000737	30.4888
