Adsorption isotherm of Nitrogen on sp2c-COF-5@ETTF-DABP-COF
DOI: 10.1002/anie.202004728
Article source: Figure S7
Adsorbate Nitrogen: InChIKey IJGRMHOSHXDMSA-UHFFFAOYSA-N
Kind: experiment
Temperature: 77 K
Tabular data in the source: 0
pressure (bar)	uptake (cm3(STP)/g)
0.002417	8.72845
0.000708	17.6867
0.000708	26.1473
-0.000146	33.6125
0.002417	41.0777
0.003272	46.0545
0.002417	53.0221
0.007972	60.7361
0.01139	65.4641
0.019936	70.1921
0.031473	74.6712
0.046	81.3899
0.073347	88.6063
0.081465	90.9703
0.102402	93.8319
0.122912	97.0669
0.145131	100.799
0.163077	104.283
0.183586	107.518
0.202387	111.126
0.222042	113.988
0.244688	118.716
0.263061	121.702
0.283571	127.177
0.302371	137.379
0.349373	165
0.413465	168.484
0.475849	171.719
0.507468	173.212
0.558742	175.203
0.607025	177.442
0.657872	179.931
0.710001	182.17
0.760848	184.908
0.809131	187.894
0.86126	192.124
0.912534	198.843
0.951844	207.677
0.974918	218.501
0.988591	231.938
0.9997	247.864
1.00226	267.398
1.00483	270.509
0.998846	266.776
0.976627	243.136
0.937317	220.741
0.893734	211.409
0.843314	206.806
0.791185	204.566
0.739056	202.326
0.690346	201.207
0.639926	199.838
0.587798	198.843
0.536951	197.723
0.487813	193.368
0.435684	188.64
0.385265	187.147
0.336554	185.156
0.29468	153.305
0.266907	144.844
0.226315	136.881
0.184441	130.909
0.145558	124.439
0.107529	118.965
0.083602	114.735
0.070783	112.122
0.041728	103.537
0.026345	99.3064
0.015236	91.3435
0.009254	85.1225
0.004127	79.648
0.003272	72.1828
0.003272	67.7037
0.003272	60.8606
