Adsorption isotherm of Nitrogen on TFPPy-PDA-COF
DOI: 10.1002/anie.202004728
Article source: Figure S5
Adsorbate Nitrogen: InChIKey IJGRMHOSHXDMSA-UHFFFAOYSA-N
Kind: experiment
Temperature: 77 K
Tabular data in the source: 0
pressure (bar)	uptake (cm3(STP)/g)
-0.001909	8.11794
-0.000704	20.3564
-0.000704	31.5458
-0.001909	45.5326
-0.001909	54.9737
-0.000704	65.4638
-0.000101	77.3526
-0.000704	90.64
-0.001909	100.081
-0.001307	109.522
-0.000704	119.313
-0.000704	127.355
0.000501	135.398
0.001104	143.44
0.001707	153.581
0.001707	189.597
0.003515	218.27
0.005323	240.648
0.006528	265.125
0.011349	307.435
0.020389	333.311
0.02762	364.432
0.042084	414.085
0.122235	587.171
0.142122	592.766
0.179486	600.808
0.219863	607.452
0.262048	614.096
0.304233	616.544
0.356663	620.39
0.409093	622.838
0.457907	625.985
0.509132	628.083
0.559754	628.782
0.610979	631.929
0.660395	634.027
0.712825	635.076
0.761037	636.824
0.814672	638.922
0.864691	641.37
0.914108	643.468
0.95569	645.566
1.0103	671.034
1.00193	657.921
0.974724	651.608
0.935385	647.237
0.894371	646.266
0.842059	643.352
0.791838	642.137
0.741618	640.681
0.691398	639.224
0.640341	638.738
0.589283	636.552
0.538226	635.096
0.486332	632.424
0.43653	628.782
0.385473	626.111
0.335253	623.44
0.283359	619.312
0.243601	614.698
0.203843	608.385
0.163248	601.828
0.120561	592.844
0.092103	580.702
0.071178	562.248
0.059041	536.751
0.044394	433.064
0.031002	376.728
0.01761	342.247
0.011751	317.964
0.005892	291.253
0.004636	267.942
0.002962	245.359
0.002125	224.476
0.001707	196.308
3.3e-05	167.655
