Adsorption isotherm of Nitrogen on sp2c-COF-4@TPB-DMTP-COF
DOI: 10.1002/anie.202004728
Article source: Figure S6
Adsorbate Nitrogen: InChIKey IJGRMHOSHXDMSA-UHFFFAOYSA-N
Kind: experiment
Temperature: 77 K
Tabular data in the source: 0
pressure (bar)	uptake (cm3(STP)/g)
-1.3e-05	10.5157
0.001664	19.4604
0.003899	28.6132
0.006135	37.3499
0.010607	46.9187
0.017315	55.2394
0.026259	68.3445
0.046382	78.1213
0.062034	83.1137
0.076567	88.1061
0.09669	93.9306
0.117932	101.835
0.15203	110.364
0.188363	120.141
0.216312	129.293
0.285626	165.488
0.337611	169.233
0.387361	172.145
0.437669	175.473
0.487977	178.802
0.538286	181.714
0.588594	183.378
0.638902	186.706
0.690329	191.283
0.740637	195.859
0.792063	203.764
0.849079	214.164
0.899388	236.422
0.955286	304.444
0.970937	352.704
0.986589	437.367
1.00224	482.091
1.00448	489.163
1.00112	436.119
0.997768	384.323
0.984912	333.358
0.968701	285.722
0.944106	250.151
0.907213	222.485
0.858023	206.884
0.806597	196.275
0.758524	190.034
0.707098	186.29
0.65679	181.298
0.608717	177.553
0.557291	174.225
0.504747	171.313
0.455556	168.401
0.404689	165.488
0.35494	162.16
0.307985	159.664
0.280036	156.752
0.248733	155.92
0.225256	123.469
0.207369	115.148
0.185009	110.572
0.166004	106.62
0.147558	102.251
0.124639	96.2188
0.10787	90.6023
0.082157	82.6976
0.048618	70.6326
0.028495	63.144
0.019551	56.4875
0.009489	42.7583
0.006135	30.6933
0.004458	20.2925
0.005017	9.68361
