Adsorption isotherm of Nitrogen on TPB-DMTP-COF
DOI: 10.1002/anie.202004728
Article source: Figure S6
Adsorbate Nitrogen: InChIKey IJGRMHOSHXDMSA-UHFFFAOYSA-N
Kind: experiment
Temperature: 77 K
Tabular data in the source: 0
pressure (bar)	uptake (cm3(STP)/g)
0.000993	109.431
0.001987	123.11
0.004967	136.069
0.00596	154.068
0.017881	178.546
0.025253	199.491
0.041924	219.489
0.064345	253.653
0.081016	269.068
0.102286	299.483
0.120107	322.398
0.139653	341.563
0.162073	361.978
0.182769	378.643
0.202314	399.475
0.229908	498.217
0.254628	539.464
0.280497	553.212
0.308666	563.212
0.353506	582.377
0.408694	591.959
0.47193	600.292
0.508147	604.042
0.555862	609.458
0.608175	616.124
0.658189	621.54
0.709928	627.79
0.761667	632.789
0.81398	640.289
0.862845	648.205
0.909984	661.954
0.950225	684.869
0.97322	714.45
0.988167	754.446
0.99794	801.943
1.00714	864.021
1.00714	947.348
1.00886	946.931
1.00426	933.599
0.990467	857.771
0.97667	777.778
0.950225	711.116
0.900786	680.286
0.845598	665.703
0.79271	658.621
0.739247	652.788
0.690382	647.788
0.638644	643.622
0.589205	637.789
0.536316	634.456
0.486877	630.29
0.436288	623.623
0.386274	617.791
0.33626	607.791
0.28912	589.043
0.24658	568.628
0.21956	506.966
0.19829	442.805
0.168397	407.807
0.145402	386.976
0.10976	352.812
0.092513	324.481
0.072968	302.399
0.057446	277.401
0.037325	248.653
0.023528	227.822
0.01548	209.907
0.007432	195.324
0.005132	167.827
0.001683	148.661
