Adsorption isotherm of Nitrogen on sp2c-COF-5
DOI: 10.1002/anie.202004728
Article source: Figure S7
Adsorbate Nitrogen: InChIKey IJGRMHOSHXDMSA-UHFFFAOYSA-N
Kind: experiment
Temperature: 77 K
Tabular data in the source: 0
pressure (bar)	uptake (cm3(STP)/g)
0	9.32755
0	17.7874
0.00052	25.0633
-0.000444	31.3399
0.001483	36.152
0.004375	39.4995
0.003411	43.8931
0.006302	47.2406
0.010158	50.3789
0.014495	53.5172
0.020759	58.0155
0.031361	62.3045
0.042927	66.4889
0.075214	73.0794
0.082442	74.8577
0.101718	77.7868
0.122921	80.9251
0.142197	83.4358
0.163401	86.5741
0.178821	89.0847
0.201952	92.223
0.223156	94.9429
0.243395	98.2904
0.263635	101.743
0.282911	105.822
0.304114	114.296
0.350376	134.067
0.408204	136.996
0.47567	139.925
0.507957	141.39
0.557592	143.9
0.607709	145.783
0.65879	148.294
0.709871	150.805
0.759988	153.106
0.811069	156.872
0.863114	160.847
0.912268	167.961
0.952747	178.213
0.975878	192.021
0.992744	207.503
0.999973	225.287
1.00431	250.603
1.00768	254.997
0.999009	249.348
0.974914	213.152
0.933953	188.674
0.8901	179.259
0.839983	174.656
0.79083	172.25
0.738785	170.471
0.687704	169.112
0.637587	167.961
0.585542	167.124
0.538316	165.45
0.486271	162.103
0.436154	158.441
0.386519	156.349
0.334474	154.571
0.286284	129.046
0.245323	120.259
0.204844	114.4
0.164364	109.379
0.123885	104.149
0.091116	99.755
0.07184	96.1982
0.040035	90.5493
0.030879	86.3649
0.012085	80.5067
0.009194	77.1592
0.002447	71.0918
0.004375	66.4889
0.001483	61.2584
3.8e-05	55.6095
