Adsorption isotherm of Nitrogen on sp2c-COF@TFPPy-PDA-COF
DOI: 10.1002/anie.202004728
Article source: Figure S5
Adsorbate Nitrogen: InChIKey IJGRMHOSHXDMSA-UHFFFAOYSA-N
Kind: experiment
Temperature: 77 K
Tabular data in the source: 0
pressure (bar)	uptake (cm3(STP)/g)
-0.001353	7.49678
0.0007	26.7573
-0.001353	48.9809
-0.001353	62.6855
-0.00084	82.3164
-0.000327	95.6506
-0.001353	110.466
-0.00238	124.541
-0.001867	131.949
-0.000327	141.579
0.0007	148.987
0.02739	301.59
0.043302	321.591
0.068453	341.592
0.092577	364.557
0.101816	372.335
0.12286	393.447
0.162896	471.971
0.179321	520.122
0.206012	546.791
0.222437	547.902
0.233729	551.235
0.249127	555.68
0.26042	557.162
0.275818	561.606
0.292243	564.199
0.311748	569.014
0.354863	572.718
0.405678	578.644
0.455466	583.089
0.504741	586.793
0.562228	594.942
0.608424	600.127
0.661292	603.831
0.71108	608.276
0.761381	614.202
0.810656	619.758
0.860958	626.425
0.909719	637.907
0.947702	656.427
0.975419	676.428
0.990304	701.615
0.99749	736.432
1.00416	819.401
0.995437	781.62
0.972853	711.246
0.950268	679.392
0.907153	655.316
0.847612	640.5
0.795258	631.24
0.74085	626.796
0.690549	623.092
0.641787	618.277
0.587892	610.498
0.536564	606.424
0.488316	602.35
0.438015	597.164
0.3872	590.127
0.336385	584.571
0.287623	578.644
0.242968	569.755
0.205499	559.014
0.178808	533.086
0.164436	490.861
0.131586	426.783
0.112595	404.559
0.094117	386.78
0.081285	371.594
0.06332	354.556
0.042789	336.407
0.02585	314.924
0.016611	294.923
0.010965	275.662
0.006859	254.92
0.004293	228.992
0.003266	212.325
0.003779	196.768
0.001726	181.582
0.001213	166.766
-0.00238	128.986
-0.000327	105.281
-0.001353	77.8717
0.0007	60.8335
0.0007	34.1651
