Adsorption isotherm of Nitrogen on ETTF-DABP-COF
DOI: 10.1002/anie.202004728
Article source: Figure S7
Adsorbate Nitrogen: InChIKey IJGRMHOSHXDMSA-UHFFFAOYSA-N
Kind: experiment
Temperature: 77 K
Tabular data in the source: 0
pressure (bar)	uptake (cm3(STP)/g)
0.002768	8.66613
0.001496	17.5408
0.001496	27.5248
0.000224	35.8449
0.000224	44.4422
0.000224	56.0903
-0.001048	61.9143
-0.001048	67.461
0.006584	83.5463
0.007856	92.421
0.012943	102.96
0.016759	117.381
0.032659	129.584
0.046014	142.341
0.073997	158.427
0.081629	165.083
0.10198	170.907
0.122332	178.395
0.140139	185.051
0.161762	192.261
0.180206	200.027
0.202465	208.347
0.221544	216.667
0.243167	224.709
0.262247	234.971
0.278782	246.619
0.301677	271.579
0.371635	349.51
0.411066	353.67
0.473391	357.552
0.509006	359.771
0.558612	364.763
0.609491	367.536
0.657825	370.31
0.708703	375.302
0.760853	380.848
0.81046	385.286
0.861974	391.664
0.912216	400.262
0.952919	414.683
0.975814	425.777
0.991077	439.089
1.00125	454.619
1.00634	470.705
1.00634	502.875
1.00634	502.321
1.00252	489.009
0.978358	451.569
0.936383	432.987
0.891865	425.222
0.84353	419.675
0.792016	415.793
0.741774	410.801
0.688988	407.75
0.641289	404.144
0.590411	401.926
0.536989	398.598
0.489927	386.95
0.439049	377.52
0.385738	373.323
0.331889	368.051
0.296722	293.291
0.268149	260.703
0.228586	241.534
0.186825	226.198
0.145064	212.3
0.107699	200.319
0.08572	191.693
0.070334	183.067
0.059344	175.399
0.043959	167.252
0.024177	153.355
0.017584	138.978
0.012089	129.393
0.006594	123.642
0.004396	113.099
0.003297	90.0958
0.003297	78.5942
0.002198	100.16
