Adsorption isotherm of Nitrogen on sp2c-COF-4
DOI: 10.1002/anie.202004728
Article source: Figure S6
Adsorbate Nitrogen: InChIKey IJGRMHOSHXDMSA-UHFFFAOYSA-N
Kind: experiment
Temperature: 77 K
Tabular data in the source: 0
pressure (bar)	uptake (cm3(STP)/g)
0.005031	9.42294
0.001006	15.9971
0.005031	21.2564
0.011068	27.3923
0.019118	34.843
0.032199	39.0066
0.046286	43.1702
0.074459	49.7443
0.082509	51.9357
0.104627	57.2742
0.12326	61.5859
0.143058	64.8831
0.164021	68.434
0.184401	71.9848
0.202452	75.7893
0.222251	82.7642
0.240884	97.0944
0.28048	109.776
0.324152	112.059
0.359672	114.341
0.40742	116.117
0.456333	118.146
0.507575	120.429
0.561146	122.077
0.610059	123.979
0.661301	125.628
0.713708	127.784
0.761456	129.813
0.811534	132.603
0.862776	135.9
0.911688	141.226
0.953614	149.85
0.976905	160.249
0.989716	172.677
0.997868	188.148
1.00602	210.975
1.0066	210.848
0.996121	204.761
0.968753	179.018
0.941968	161.771
0.900042	151.372
0.844724	144.777
0.794647	141.734
0.743987	139.831
0.690998	138.436
0.639174	137.168
0.590261	135.9
0.540184	135.012
0.488942	133.617
0.440029	132.096
0.388787	130.827
0.33871	129.94
0.285138	127.277
0.246707	120.682
0.212934	100.899
0.190224	93.0363
0.148881	85.4273
0.111614	78.5793
0.089487	72.9994
0.074347	68.434
0.058043	64.6295
0.045233	60.5714
0.027764	53.3429
0.018447	49.1579
0.013789	44.3389
0.00913	41.2953
0.008548	37.9981
0.003307	33.6864
0.003307	28.3601
