Adsorption isotherm of Nitrogen on sp2c-COF
DOI: 10.1002/anie.202004728
Article source: Figure S5
Adsorbate Nitrogen: InChIKey IJGRMHOSHXDMSA-UHFFFAOYSA-N
Kind: experiment
Temperature: 77 K
Tabular data in the source: 0
pressure (bar)	uptake (cm3(STP)/g)
0.00075	10.0628
0.001172	18.939
-0.000938	29.0395
0.000328	37.3035
0.00075	46.1797
-9.4e-05	53.9847
-0.000938	63.32
-9.4e-05	71.431
0.002438	79.542
0.00075	87.5
0.012143	142.288
0.021004	152.694
0.03282	167.692
0.046323	190.035
0.070797	227.071
0.08008	230.743
0.101179	234.263
0.119746	238.395
0.145064	241.303
0.163631	243.752
0.183463	245.435
0.201608	247.272
0.223129	248.037
0.245915	250.332
0.26195	251.251
0.286002	252.169
0.302881	252.781
0.35605	255.23
0.408374	257.066
0.458167	257.984
0.508803	259.821
0.559018	261.351
0.611342	263.494
0.659447	265.942
0.712194	268.391
0.762408	271.145
0.815155	274.512
0.862415	280.634
0.914318	288.745
0.951873	301.753
0.975504	316.751
0.992383	334.197
1.0004	352.256
1.00842	383.322
1.00335	375.517
0.97888	341.39
0.93837	315.986
0.896173	305.732
0.842583	299.304
0.792368	295.325
0.74131	292.265
0.690251	289.816
0.641302	288.898
0.589822	287.061
0.537497	286.755
0.489393	278.185
0.437068	271.145
0.386432	269.462
0.336217	267.32
0.284315	265.942
0.244649	263.341
0.202452	261.351
0.164053	258.29
0.123121	254.617
0.092317	249.414
0.068265	243.446
0.041259	205.339
0.025224	181.618
0.015941	168.763
0.010455	157.285
0.005813	148.256
0.003282	139.992
0.00286	130.963
0.002016	121.168
0.002438	113.21
0.004125	103.11
0.003282	96.8353
