Adsorption isotherm of As(III) on Fe-Mn binary oxide
DOI: 10.1016/j.ecoenv.2017.06.063
Article source: Figure 1
Adsorbate As(III): InChIKey LULLIKNODDLMDQ-UHFFFAOYSA-N
Kind: experiment
Temperature: 298 K
Tabular data in the source: 0
pressure (bar)	uptake (mg/g)
1.01325	1.1354
1.01325	1.956
1.01325	2.674
1.01325	3.1063
1.01325	3.3847
