Adsorption isotherm of As(III) on Fe/Mn modified biochar
DOI: 10.1016/j.ecoenv.2017.06.063
Article source: Figure 2
Adsorbate As(III): InChIKey LULLIKNODDLMDQ-UHFFFAOYSA-N
Kind: experiment
Temperature: 298 K
Tabular data in the source: 0
pressure (bar)	uptake (mg/g)
1.01325	0.8029
1.01325	1.546
1.01325	2.9317
1.01325	4.0846
1.01325	4.9795
1.01325	5.56
