Adsorption isotherm of As(III) on pristine biochar
DOI: 10.1016/j.ecoenv.2017.06.063
Article source: Figure 1
Adsorbate As(III): InChIKey LULLIKNODDLMDQ-UHFFFAOYSA-N
Kind: experiment
Temperature: 298 K
Tabular data in the source: 0
pressure (bar)	uptake (mg/g)
1.01325	1.0181
1.01325	1.6702
1.01325	2.271
1.01325	2.5934
1.01325	2.7399
