Adsorption isotherm of As(III) on Fe/Mn modified biochar
DOI: 10.1016/j.ecoenv.2017.06.063
Article source: Figure 2
Adsorbate As(III): InChIKey LULLIKNODDLMDQ-UHFFFAOYSA-N
Kind: experiment
Temperature: 298 K
Tabular data in the source: 0
pressure (bar)	uptake (mg/g)
1.01325	0.8092
1.01325	1.3951
1.01325	2.5039
1.01325	3.487
1.01325	4.2939
1.01325	4.7108
