Adsorption isotherm of As(III) on Fe/Mn modified biochar
DOI: 10.1016/j.ecoenv.2017.06.063
Article source: Figure 1
Adsorbate As(III): InChIKey LULLIKNODDLMDQ-UHFFFAOYSA-N
Kind: experiment
Temperature: 298 K
Tabular data in the source: 0
pressure (bar)	uptake (mg/g)
1.01325	1.7415
1.01325	3.0616
1.01325	4.1781
1.01325	5.283
1.01325	6.2891
