Adsorption isotherm of Methanol on {[Zn2(H2dht)(dht)0.5)(azpy)0.5]}
DOI: 10.1002/chem.201101183
Adsorbate Methanol: InChIKey OKKJLVBELUTLKV-UHFFFAOYSA-N
Temperature: 293 K
Tabular data in the source: 0
pressure (bar)	uptake (cm3(STP)/g)
0.000580989	23.4051
0.00174297	27.7079
0.00261445	32.0097
0.00464791	36.7933
0.00726236	41.1015
0.0119103	45.4171
0.0148152	48.2935
0.0162677	52.1198
0.0185916	53.5612
0.0206251	55.4792
0.0217871	59.3044
0.02353	61.6989
0.0255635	64.0944
0.027016	66.4879
0.0284684	67.9261
0.0307924	70.8003
0.0331164	73.197
0.0351498	76.0702
0.0377643	77.035
0.0403787	77.9999
0.0429932	79.4424
0.0458981	79.9308
0.0485126	81.3733
0.0502555	82.3349
0.0525795	82.3435
0.0551939	83.3084
0.0578084	83.7957
0.0607133	84.7616
0.0636183	85.7276
0.0662327	86.2149
0.0691377	86.7032
0.0720426	87.1915
0.0749476	87.6799
0.077562	88.6448
0.0804669	89.1331
0.0833719	89.6215
0.0859863	90.5863
0.0888913	91.0747
0.0917962	92.0407
0.0941202	92.5268
0.0970251	93.4928
0.0999301	94.4588
0.102545	95.4236
0.105449	96.3896
0.106902	121.708
0.107192	96.8737
0.110388	140.348
0.115326	155.65
0.119684	160.442
