Adsorption isotherm of Carbon Dioxide on {[Zn2(H2dht)(dht)0.5)(azpy)0.5]}
DOI: 10.1002/chem.201101183
Adsorbate Carbon Dioxide: InChIKey CURLTUGMZLYLDI-UHFFFAOYSA-N
Temperature: 195 K
Tabular data in the source: 0
pressure (bar)	uptake (cm3(STP)/g)
0.00957132	45.534
0.014357	50.2913
0.0167498	53.6893
0.0239283	61.5049
0.0311068	64.2233
0.0382853	67.6214
0.0574279	75.0971
0.0741777	77.1359
0.0909275	79.5146
0.11007	81.5534
0.131606	83.2524
0.150748	84.2718
0.167498	85.6311
0.189034	86.6505
0.210569	87.6699
0.229712	88.3495
0.251247	89.0291
0.275175	90.0485
0.296711	90.7282
0.318246	91.4078
0.339782	91.7476
0.358925	92.4272
0.38046	93.1068
0.399603	93.4466
0.423531	94.1262
0.442674	94.1262
0.464209	95.1456
0.485745	95.4854
0.502494	96.165
0.526423	96.8447
0.550351	96.8447
0.571886	97.5243
0.588636	98.2039
0.607779	98.5437
0.631707	99.2233
0.655635	99.5631
0.677171	100.583
0.698706	100.583
0.720242	101.262
0.748956	101.602
0.772884	102.282
0.789634	102.621
0.811169	103.301
0.85424	103.981
0.875776	104.66
0.890133	104.66
0.940382	106.359
0.993025	107.039
