Adsorption isotherm of Water on {[Zn2(H2dht)(dht)0.5)(azpy)0.5]}
DOI: 10.1002/chem.201101183
Adsorbate Water: InChIKey XLYOFNOQVPJJNP-UHFFFAOYSA-N
Temperature: 298 K
Tabular data in the source: 0
pressure (bar)	uptake (cm3(STP)/g)
0.00702841	16.2495
0.00913694	22.4617
0.0119483	47.3017
0.0154625	52.0832
0.017571	56.3849
0.0238966	61.6483
0.0316279	65.9585
0.0358449	67.3978
0.0400619	70.7475
0.0463875	71.7123
0.0513074	74.1079
0.057633	75.0727
0.0632557	77.4693
0.0695813	77.9565
0.0759068	79.8766
0.0822324	81.319
0.088558	83.2391
0.0955864	84.6826
0.101209	85.6464
0.104723	86.607
0.111049	88.0494
0.118077	89.4929
0.124403	91.413
0.130728	92.8555
0.136351	93.8192
0.14338	95.2627
0.150408	96.7063
0.156734	98.1487
0.163059	99.5912
0.169385	100.556
0.17571	101.998
0.182036	103.441
0.189064	104.884
0.19539	106.327
0.202418	107.293
0.207338	108.256
0.212258	109.696
0.219286	111.139
0.225612	113.059
0.23264	114.025
0.238966	115.945
0.245292	117.388
0.25232	118.831
0.25724	120.272
0.263565	122.192
0.269891	124.112
0.276217	126.509
0.282542	128.43
0.288868	130.35
0.295193	132.747
