Adsorption isotherm of Benzene on {[Zn2(H2dht)(dht)0.5)(azpy)0.5]}
DOI: 10.1002/chem.201101183
Adsorbate Benzene: InChIKey UHOVQNZJYSORNB-UHFFFAOYSA-N
Temperature: 298 K
Tabular data in the source: 0
pressure (bar)	uptake (cm3(STP)/g)
0.0118354	0.952381
0.0211346	1.42857
0.0329699	1.90476
0.0495958	2.85714
0.0628401	3.33333
0.0882016	3.80952
0.101728	4.7619
0.108491	6.19048
0.116099	8.57143
