Adsorption isotherm of Ethanol on {[Zn2(H2dht)(dht)0.5)(azpy)0.5]}
DOI: 10.1002/chem.201101183
Adsorbate Ethanol: InChIKey LFQSCWFLJHTTHZ-UHFFFAOYSA-N
Temperature: 298 K
Tabular data in the source: 0
pressure (bar)	uptake (cm3(STP)/g)
0.00173719	10
0.00312694	12.381
0.00486413	15.2381
0.00660132	18.5714
0.00799107	21.4286
0.00972826	21.4286
0.0112917	23.3333
0.0126815	24.2857
0.014245	25.2381
0.0159821	25.7143
0.0177193	26.6667
0.0192828	27.1429
0.02102	28.0952
0.0225835	28.5714
0.0243207	29.0476
0.0260579	29.5238
0.027795	30
0.0293585	30.9524
0.0310957	31.4286
0.0328329	31.4286
0.0345701	32.381
0.0359598	32.8571
0.037697	33.3333
0.0394342	34.2857
0.0409977	34.2857
0.0425612	35.2381
0.0441246	35.7143
0.0456881	36.1905
0.0474253	37.1429
0.0491625	37.619
0.050726	38.5714
0.0522894	38.5714
0.0538529	39.5238
0.0555901	40
0.0573273	40.4762
0.0588907	41.4286
0.061844	41.9048
0.0635812	42.8571
0.0653183	43.3333
0.0679241	44.7619
0.0696613	45.2381
0.0712248	45.7143
0.0738306	46.1905
