Adsorption isotherm of Oxygen on {[Zn2(H2dht)(dht)0.5)(azpy)0.5]}
DOI: 10.1002/chem.201101183
Adsorbate Oxygen: InChIKey MYMOFIZGZYHOMD-UHFFFAOYSA-N
Temperature: 195 K
Tabular data in the source: 0
pressure (bar)	uptake (cm3(STP)/g)
5.65684	0.679612
8.67382	0.339806
11.0623	0.679612
13.8278	1.01942
16.7191	1.35922
19.2333	1.35922
21.8731	1.35922
24.513	1.35922
27.1528	1.69903
29.667	1.69903
32.5583	1.69903
35.1981	2.03883
37.838	1.69903
40.4778	1.69903
42.8663	1.69903
45.6318	2.03883
48.2717	1.69903
50.9116	2.37864
53.4257	2.03883
