Adsorption isotherm of Nitrogen on {[Zn2(H2dht)(dht)0.5)(azpy)0.5]}
DOI: 10.1002/chem.201101183
Adsorbate Nitrogen: InChIKey IJGRMHOSHXDMSA-UHFFFAOYSA-N
Temperature: 77 K
Tabular data in the source: 0
pressure (bar)	uptake (cm3(STP)/g)
0.114566	2.37864
0.17414	3.39806
0.261211	3.73786
0.339115	4.07767
0.389525	4.41748
0.490343	4.41748
0.598035	4.41748
0.666774	4.75728
0.744679	4.75728
0.801962	4.75728
0.85008	4.75728
0.907363	4.75728
0.939442	5.09709
