Adsorption isotherm of Argon on {[Zn2(H2dht)(dht)0.5)(azpy)0.5]}
DOI: 10.1002/chem.201101183
Adsorbate Argon: InChIKey XKRFYHLGVUSROY-UHFFFAOYSA-N
Temperature: 195 K
Tabular data in the source: 0
pressure (bar)	uptake (cm3(STP)/g)
9.90566	5.09709
12.7358	5.43689
15.3302	6.45631
17.6887	7.81553
19.3396	8.83495
22.2877	9.17476
24.6462	9.85437
27.4764	10.1942
28.6557	10.534
30.1887	10.8738
31.6038	10.8738
32.6651	10.8738
34.7877	11.2136
37.7358	11.8932
40.4481	12.233
42.4528	12.5728
45.0472	12.9126
46.5802	13.2524
48.7028	13.5922
