Adsorption isotherm of Carbon Dioxide on {[Zn2(H2dht)(dht)0.5)(azpy)0.5]}
DOI: 10.1002/chem.201101183
Adsorbate Carbon Dioxide: InChIKey CURLTUGMZLYLDI-UHFFFAOYSA-N
Temperature: 298 K
Tabular data in the source: 0
pressure (bar)	uptake (cm3(STP)/g)
0.0934579	1.64549
0.46729	6.76402
0.934579	9.8695
1.1215	11.6971
1.86916	14.2512
2.61682	16.0736
3.36449	17.8961
4.20561	18.803
5.04673	20.2587
6.54206	21.8914
8.03738	23.1582
9.43925	24.6088
10.8411	25.8765
12.4299	26.5936
13.8318	27.1296
15.2336	27.6655
16.729	28.2006
18.1308	28.3708
