Adsorption isotherm of Hydrogen on {[Zn2(H2dht)(dht)0.5)(azpy)0.5]}
DOI: 10.1002/chem.201101183
Adsorbate Hydrogen: InChIKey UFHFLCQGNIYNRP-UHFFFAOYSA-N
Temperature: 77 K
Tabular data in the source: 0
pressure (bar)	uptake (cm3(STP)/g)
2.12264	1.69903
2.83019	2.03883
6.36792	3.05825
11.0849	4.07767
13.6792	4.41748
15.8019	4.41748
22.4057	5.09709
27.1226	5.43689
31.6038	6.1165
36.5566	6.1165
42.217	6.45631
47.4057	6.45631
50	6.79612
53.7736	7.47573
57.0755	7.47573
61.7925	8.15534
63.2075	8.15534
68.1604	7.81553
73.3491	7.81553
80.4245	7.13592
89.3868	7.13592
96.934	7.81553
