Adsorption isotherm of Nitrogen on IRMOF-3-Pr(OP)
DOI: 10.1039/C4ra01269k
Adsorbate Nitrogen: InChIKey IJGRMHOSHXDMSA-UHFFFAOYSA-N
Temperature: 77 K
Tabular data in the source: 0
pressure (bar)	uptake (cm3(STP)/g)
0.0188445	10.0985
0.0210559	21.0708
0.0213378	2.07297
0.0280286	31.1904
0.0849379	36.1554
0.103939	35.6996
0.125296	36.506
0.146646	37.7346
0.172751	38.5327
0.196489	38.9127
0.217839	40.1413
0.243944	40.9394
0.258184	41.3363
0.270055	41.3152
0.296161	42.1132
0.310395	42.9323
0.357876	43.2703
0.407718	44.4484
0.459941	45.2001
0.502673	45.5464
0.550142	46.7287
0.59999	47.4847
0.645078	49.0933
0.697295	50.2672
0.740027	50.6136
0.780372	51.8085
0.832583	53.4046
0.877652	56.2798
0.925108	58.3064
0.965408	62.4566
