Adsorption isotherm of Nitrogen on IRMOF-3-Pr'(OP)
DOI: 10.1039/C4ra01269k
Adsorbate Nitrogen: InChIKey IJGRMHOSHXDMSA-UHFFFAOYSA-N
Temperature: 77 K
Tabular data in the source: 0
pressure (bar)	uptake (cm3(STP)/g)
0.447812	62.5303
0.49208	119.444
0.5324	122.327
0.579849	124.776
0.632053	126.795
0.686632	128.809
0.722222	130.434
0.769685	132.039
0.819527	133.217
0.869351	135.661
0.9168	138.11
0.957133	140.149
