Adsorption isotherm of Nitrogen on IRMOF-3
DOI: 10.1039/C4ra01269k
Adsorbate Nitrogen: InChIKey IJGRMHOSHXDMSA-UHFFFAOYSA-N
Temperature: 77 K
Tabular data in the source: 0
pressure (bar)	uptake (cm3(STP)/g)
0.0204357	62.8661
0.0207928	38.8022
0.0226973	70.4611
0.0227161	69.1945
0.025034	72.9899
0.0344751	76.7726
0.0439412	78.8667
0.0557941	80.1121
0.0842613	81.7503
0.110361	82.9705
0.119852	83.3758
0.143583	84.1781
0.164939	84.9845
0.195793	85.7741
0.210033	86.171
0.245635	86.9522
0.262263	86.5005
0.290723	88.5609
0.312105	87.6786
0.335842	88.0587
0.359567	89.2831
0.385679	89.659
0.395175	89.6421
0.433166	89.5747
0.445038	89.5537
0.504383	90.2927
0.551871	90.2085
0.59459	91.3992
0.639696	91.7414
0.689545	92.4973
0.734645	93.2617
0.784495	94.0176
0.827208	95.6305
0.869889	99.3542
0.926674	112.763
0.966868	124.09
