Adsorption isotherm of Nitrogen on IRMOF-3-Pr'(OP)
DOI: 10.1039/C4ra01269k
Adsorbate Nitrogen: InChIKey IJGRMHOSHXDMSA-UHFFFAOYSA-N
Temperature: 77 K
Tabular data in the source: 0
pressure (bar)	uptake (cm3(STP)/g)
0.0163949	15.1688
0.0164639	10.5249
0.0189134	5.45458
0.0209744	26.5591
0.0210747	19.8043
0.0232987	29.9323
0.051747	32.837
0.070698	35.7585
0.108644	38.6464
0.156043	44.4726
0.19875	46.5076
0.236715	48.129
0.284164	50.5778
0.312625	52.6381
0.35532	55.5176
0.402775	57.5442
0.445469	60.4236
0.4929	64.139
0.542699	68.2723
0.585387	71.5739
0.639909	77.3875
0.687309	83.2137
0.734683	90.7286
0.784382	101.617
0.826938	113.784
0.878936	129.734
0.914438	137.27
0.957127	140.572
