Adsorption isotherm of Nitrogen on CUP-1
DOI: 10.1039/C4ra01269k
Adsorbate Nitrogen: InChIKey IJGRMHOSHXDMSA-UHFFFAOYSA-N
Temperature: 77 K
Tabular data in the source: 0
pressure (bar)	uptake (cm3(STP)/g)
0.1112	26.3991
0.151544	27.594
0.199032	27.5098
0.241745	29.1227
0.293987	28.6079
0.341462	29.368
0.386575	29.288
0.436423	30.0439
0.479156	30.3903
0.52663	31.1504
0.578859	31.4799
0.626327	32.6622
0.673821	32.1558
0.721289	33.3381
0.761666	32.4222
0.821012	33.1612
0.863738	33.9298
0.920715	34.2509
0.970533	37.1177
