Adsorption isotherm of Nitrogen on IRMOF-3
DOI: 10.1039/C4ra01269k
Adsorbate Nitrogen: InChIKey IJGRMHOSHXDMSA-UHFFFAOYSA-N
Temperature: 77 K
Tabular data in the source: 0
pressure (bar)	uptake (cm3(STP)/g)
0.43554	89.5705
0.490094	93.2732
0.530345	100.801
0.575445	101.565
0.630042	102.313
0.672762	103.503
0.727334	105.94
0.777146	109.228
0.8269	116.317
0.864828	120.471
0.917032	122.49
0.964481	124.938
