Adsorption isotherm of Nitrogen on CUP-1
DOI: 10.1039/C4ra01269k
Adsorbate Nitrogen: InChIKey IJGRMHOSHXDMSA-UHFFFAOYSA-N
Temperature: 77 K
Tabular data in the source: 0
pressure (bar)	uptake (cm3(STP)/g)
0.0187755	14.7424
0.018857	9.25415
0.0189259	4.61023
0.0258359	18.9515
0.0590706	19.3148
0.0709361	19.7159
0.0994341	19.2432
0.118404	20.8982
0.144522	20.8519
0.170621	22.0721
0.194353	22.8743
0.222851	22.4016
0.24422	22.3637
0.260828	23.1785
0.282196	23.1406
0.308302	23.9387
0.355776	24.6988
0.400877	25.4631
0.502942	27.3929
0.548062	26.8907
0.602659	27.6382
0.690497	28.3268
0.74034	29.5049
0.792563	30.2566
0.83767	30.5987
0.875647	31.3757
0.934987	32.5369
0.968165	36.6997
