Adsorption isotherm of Nitrogen on IRMOF-3-Pr(OP)
DOI: 10.1039/C4ra01269k
Adsorbate Nitrogen: InChIKey IJGRMHOSHXDMSA-UHFFFAOYSA-N
Temperature: 77 K
Tabular data in the source: 0
pressure (bar)	uptake (cm3(STP)/g)
0.0303403	35.4079
0.0683112	36.6071
0.0967908	37.4009
0.156106	40.2508
0.205936	42.2733
0.248656	43.464
0.293756	44.2283
0.345979	44.98
0.388704	45.7486
0.438547	46.9267
0.483622	49.3797
0.531097	50.1398
0.588062	51.3053
0.628407	52.5002
0.68063	53.2519
0.728086	55.2786
0.76845	55.207
0.820667	56.3809
0.865754	57.9895
