Adsorption isotherm of Nitrogen on MOF-120
DOI: 10.1039/C0cc01578d
Adsorbate Nitrogen: InChIKey IJGRMHOSHXDMSA-UHFFFAOYSA-N
Temperature: 77 K
Tabular data in the source: 0
pressure (bar)	uptake (cm3(STP)/g)
5.39e-07	8.58325
1.7e-06	102.533
3.72e-06	130.936
3.58e-05	175.726
5.81e-05	197.575
0.000109	268.583
0.000355	305.726
0.0472219	333.037
0.0974464	348.331
0.430029	370.18
0.915727	383.289
1.00225	394.214
