Adsorption isotherm of Nitrogen on Si(1)-MOF
DOI: 10.1039/C0cc01578d
Adsorbate Nitrogen: InChIKey IJGRMHOSHXDMSA-UHFFFAOYSA-N
Temperature: 77 K
Tabular data in the source: 0
pressure (bar)	uptake (cm3(STP)/g)
2.69e-07	10.2999
7.3e-07	62.7369
2.65e-05	107.308
0.000113	170.233
0.00126193	201.695
0.0472219	242.334
0.247155	267.241
0.481155	290.838
0.697458	332.787
0.801676	374.737
0.903928	483.544
0.96292	636.922
1.00815	659.207
