Adsorption isotherm of Nitrogen on MOF-120
DOI: 10.1039/C0cc01578d
Adsorbate Nitrogen: InChIKey IJGRMHOSHXDMSA-UHFFFAOYSA-N
Temperature: 77 K
Tabular data in the source: 0
pressure (bar)	uptake (cm3(STP)/g)
5.56e-07	11.6108
1.98e-06	112.552
4.04e-05	178.098
6.36e-05	205.628
0.00012	272.485
0.000279	305.258
0.00352167	327.544
0.0472219	335.409
0.237323	357.695
0.524416	369.493
0.949155	381.292
0.998315	389.157
