Adsorption isotherm of Nitrogen on Si(1.5)-MOF
DOI: 10.1039/C0cc01578d
Adsorbate Nitrogen: InChIKey IJGRMHOSHXDMSA-UHFFFAOYSA-N
Temperature: 77 K
Tabular data in the source: 0
pressure (bar)	uptake (cm3(STP)/g)
3.43e-07	8.98898
1.05e-06	41.7621
1.84e-05	70.6024
9.13e-05	108.619
0.00276614	137.46
0.0638611	163.678
0.184231	171.544
0.518517	196.451
0.693525	220.048
0.774147	238.401
0.852802	282.972
0.915727	365.56
0.96292	453.392
0.998315	463.88
