Adsorption isotherm of Nitrogen on Si(2)-MOF
DOI: 10.1039/C0cc01578d
Adsorbate Nitrogen: InChIKey IJGRMHOSHXDMSA-UHFFFAOYSA-N
Temperature: 77 K
Tabular data in the source: 0
pressure (bar)	uptake (cm3(STP)/g)
0.00192559	8.98898
0.00606339	12.9218
0.0318951	22.0982
0.0837953	31.2747
0.152769	37.8293
0.492954	67.9806
0.632567	81.0898
0.703357	100.754
0.783979	123.039
0.876399	188.586
0.990449	348.518
