Adsorption isotherm of Nitrogen on Al(2)-MOF
DOI: 10.1039/C0cc01578d
Adsorbate Nitrogen: InChIKey IJGRMHOSHXDMSA-UHFFFAOYSA-N
Temperature: 77 K
Tabular data in the source: 0
pressure (bar)	uptake (cm3(STP)/g)
3.87e-07	9.67569
1.05e-06	58.8354
1.59e-05	86.1463
0.000103	146.23
0.000878	171.356
0.0890098	209.592
0.182264	219.424
0.616836	247.827
0.807575	281.693
0.894096	327.575
0.992416	360.348
