Adsorption isotherm of Nitrogen on Al(1)-MOF
DOI: 10.1039/C0cc01578d
Adsorbate Nitrogen: InChIKey IJGRMHOSHXDMSA-UHFFFAOYSA-N
Temperature: 77 K
Tabular data in the source: 0
pressure (bar)	uptake (cm3(STP)/g)
2.61e-07	10.7681
8.48e-07	76.3143
1.63e-05	110.18
0.000106	180.096
0.000413	208.499
0.00845117	230.348
0.0863632	252.197
0.154735	258.751
0.721054	291.524
0.846903	310.096
0.923592	351.608
0.982584	483.793
