Adsorption isotherm of Nitrogen on Al(4)-MOF
DOI: 10.1039/C0cc01578d
Adsorbate Nitrogen: InChIKey IJGRMHOSHXDMSA-UHFFFAOYSA-N
Temperature: 77 K
Tabular data in the source: 0
pressure (bar)	uptake (cm3(STP)/g)
0.000962	14.0454
0.00953573	23.8774
0.0890098	39.1715
0.184231	50.0959
0.431996	71.9446
0.683693	106.903
0.856735	142.953
0.980617	149.508
