Adsorption isotherm of Nitrogen on ZIF-8
DOI: 10.1002/Aic.13970
Adsorbate Nitrogen: InChIKey IJGRMHOSHXDMSA-UHFFFAOYSA-N
Temperature: 308 K
Tabular data in the source: 0
pressure (bar)	uptake (mmol/g)
0.062049	0.0179738
1.14538	0.125044
3.14538	0.505737
5.14538	0.945914
10.187	1.76678
15.1454	2.82559
20.062	3.74163
25.0204	4.69336
