Adsorption isotherm of Water on ZIF-8
DOI: 10.1002/Aic.13970
Adsorbate Water: InChIKey XLYOFNOQVPJJNP-UHFFFAOYSA-N
Temperature: 298 K
Tabular data in the source: 0
pressure (bar)	uptake (mmol/g)
0.097482	0.00555325
0.149149	0.00915325
0.200815	0.0118532
0.304149	0.0178532
0.400815	0.0217532
0.502482	0.0244532
0.647482	0.0268532
0.694149	0.0274532
0.799149	0.0280532
0.902482	0.0283532
0.990815	0.0277532
