Adsorption isotherm of Nitrogen on ZIF-8
DOI: 10.1002/Aic.13970
Adsorbate Nitrogen: InChIKey IJGRMHOSHXDMSA-UHFFFAOYSA-N
Temperature: 77 K
Tabular data in the source: 0
pressure (bar)	uptake (mmol/g)
0.000826	0.100433
0.000826	9.34043
0.00757923	10.5404
0.0261509	12.5404
0.0616059	13.8204
0.149399	13.8604
0.252388	13.9404
0.360441	13.9804
0.498884	13.9804
0.579924	14.0204
0.655899	14.1004
0.760576	14.2204
0.828109	14.3004
0.863564	14.3804
0.915903	14.8204
0.954734	14.9804
0.990189	15.1404
1.01045	15.3804
