Adsorption isotherm of Carbon Dioxide on ED-ZIF-8
DOI: 10.1002/Aic.13970
Adsorbate Carbon Dioxide: InChIKey CURLTUGMZLYLDI-UHFFFAOYSA-N
Temperature: 318 K
Tabular data in the source: 0
pressure (bar)	uptake (mmol/g)
0.520382	0.217957
1.06205	0.426242
3.06205	1.33512
5.06205	2.20613
8.10372	3.60732
11.0204	4.87597
15.0204	6.22035
20.187	7.39432
25.0204	8.32214
