Adsorption isotherm of Nitrogen on ZIF-8
DOI: 10.1002/Aic.13970
Adsorbate Nitrogen: InChIKey IJGRMHOSHXDMSA-UHFFFAOYSA-N
Temperature: 328 K
Tabular data in the source: 0
pressure (bar)	uptake (mmol/g)
0.062049	0.0179738
1.22872	0.10125
3.10372	0.374874
5.22872	0.660394
10.1454	1.39799
15.1037	2.25455
19.9787	3.11111
25.062	3.99146
