Adsorption isotherm of Water on ED-ZIF-8
DOI: 10.1002/Aic.13970
Adsorbate Water: InChIKey XLYOFNOQVPJJNP-UHFFFAOYSA-N
Temperature: 298 K
Tabular data in the source: 0
pressure (bar)	uptake (mmol/g)
7.88e-05	-0.000181
0.00166216	0.003519
0.00327716	0.011659
0.00479716	0.020909
0.00647549	0.033119
0.00793216	0.046439
0.00957882	0.062719
0.0109722	0.077889
0.0130622	0.101569
0.0144238	0.118589
0.0156272	0.136349
0.0182555	0.178529
