Adsorption isotherm of Nitrogen on ZIF-8
DOI: 10.1002/Aic.13970
Adsorbate Nitrogen: InChIKey IJGRMHOSHXDMSA-UHFFFAOYSA-N
Temperature: 308 K
Tabular data in the source: 0
pressure (bar)	uptake (mg/m2)
1.14538	0.0180144
3.06205	0.0726811
5.14538	0.123348
10.2287	0.247348
15.0204	0.386014
19.937	0.514014
24.937	0.638014
