Adsorption isotherm of Nitrogen on ED-ZIF-8
DOI: 10.1002/Aic.13970
Adsorbate Nitrogen: InChIKey IJGRMHOSHXDMSA-UHFFFAOYSA-N
Temperature: 77 K
Tabular data in the source: 0
pressure (bar)	uptake (mmol/g)
0.000826	0.100433
0.000826	9.34043
0.00251422	14.2204
0.00420256	15.9004
0.0126442	17.8204
0.0278392	18.8204
0.0616059	18.9804
0.0970609	19.0604
0.129139	19.1004
0.156153	19.2204
0.213556	19.3804
0.304726	19.6204
0.443169	19.9004
0.588366	20.2604
0.711614	20.5404
0.811226	20.8204
0.893954	21.0604
0.944604	21.2604
0.974994	21.4204
1.00201	21.6604
1.01045	21.7804
