Adsorption isotherm of Nitrogen on ZIF-8
DOI: 10.1002/Aic.13970
Adsorbate Nitrogen: InChIKey IJGRMHOSHXDMSA-UHFFFAOYSA-N
Temperature: 298 K
Tabular data in the source: 0
pressure (bar)	uptake (mg/m2)
0.895382	0.0153478
3.10372	0.0820144
5.06205	0.138014
10.1454	0.283348
14.9787	0.427348
20.062	0.572681
24.9787	0.716681
