Adsorption isotherm of Nitrogen on ED-ZIF-8
DOI: 10.1002/Aic.13970
Adsorbate Nitrogen: InChIKey IJGRMHOSHXDMSA-UHFFFAOYSA-N
Temperature: 318 K
Tabular data in the source: 0
pressure (bar)	uptake (mmol/g)
1.02038	0.125044
3.02038	0.49384
5.14538	0.838844
10.187	1.89765
15.1454	2.92076
20.062	4.18181
24.9787	5.43096
