Adsorption isotherm of Nitrogen on ED-ZIF-8
DOI: 10.1002/Aic.13970
Adsorbate Nitrogen: InChIKey IJGRMHOSHXDMSA-UHFFFAOYSA-N
Temperature: 298 K
Tabular data in the source: 0
pressure (bar)	uptake (mmol/g)
0.478716	0.315455
0.978716	0.656289
1.97872	1.5595
3.02038	2.56496
4.06205	3.48521
4.97872	4.28616
6.18705	5.036
7.85372	6.02441
9.35372	6.62087
11.1037	7.2855
12.9787	7.76266
14.937	8.20575
16.8537	8.56362
19.8537	9.14304
22.1454	9.55204
24.8954	9.92696
