Adsorption isotherm of Nitrogen on ED-ZIF-8
DOI: 10.1002/Aic.13970
Adsorbate Nitrogen: InChIKey IJGRMHOSHXDMSA-UHFFFAOYSA-N
Temperature: 308 K
Tabular data in the source: 0
pressure (bar)	uptake (mmol/g)
0.978716	0.13694
3.02038	0.589014
5.06205	1.01729
10.2287	2.19506
15.062	3.31335
20.0204	4.65767
25.0204	5.9782
