Adsorption isotherm of Carbon Dioxide on ZIF-8
DOI: 10.1002/Aic.13970
Adsorbate Carbon Dioxide: InChIKey CURLTUGMZLYLDI-UHFFFAOYSA-N
Temperature: 318 K
Tabular data in the source: 0
pressure (bar)	uptake (mg/m2)
0.395382	0.00379798
1.14538	0.0119646
3.14538	0.037048
5.06205	0.0574646
10.1037	0.111131
15.0204	0.144381
20.2287	0.165965
25.1037	0.178215
