Adsorption isotherm of Nitrogen on ZIF-8
DOI: 10.1002/Aic.13970
Adsorbate Nitrogen: InChIKey IJGRMHOSHXDMSA-UHFFFAOYSA-N
Temperature: 298 K
Tabular data in the source: 0
pressure (bar)	uptake (mmol/g)
0.124459	0.0380348
1.67446	0.0531831
4.22446	0.0986281
6.07446	0.144073
8.32446	0.219815
10.6245	0.280408
13.9245	0.371298
15.4745	0.386446
19.4245	0.44704
21.1245	0.477336
25.2745	0.53793
28.3245	0.598523
30.1745	0.62882
