Adsorption isotherm of Nitrogen on ED-ZIF-8
DOI: 10.1002/Aic.13970
Adsorbate Nitrogen: InChIKey IJGRMHOSHXDMSA-UHFFFAOYSA-N
Temperature: 328 K
Tabular data in the source: 0
pressure (bar)	uptake (mg/m2)
1.02038	0.00734776
3.02038	0.0366811
5.10372	0.0673478
10.187	0.159348
15.1454	0.256681
20.187	0.370014
25.1037	0.483348
