Adsorption isotherm of Carbon Dioxide on ZIF-8
DOI: 10.1002/Aic.13970
Adsorbate Carbon Dioxide: InChIKey CURLTUGMZLYLDI-UHFFFAOYSA-N
Temperature: 318 K
Tabular data in the source: 0
pressure (bar)	uptake (mmol/g)
0.0203823	0.0286075
0.603716	0.123282
1.39538	0.369437
2.52038	0.691332
5.10372	1.33512
10.062	2.54696
15.1037	3.30436
20.062	3.81561
21.8954	3.92922
24.9787	4.09963
