Adsorption isotherm of Carbon Dioxide on ZIF-8
DOI: 10.1002/Aic.13970
Adsorbate Carbon Dioxide: InChIKey CURLTUGMZLYLDI-UHFFFAOYSA-N
Temperature: 328 K
Tabular data in the source: 0
pressure (bar)	uptake (mg/m2)
0.478716	0.00438131
1.10372	0.010798
5.10372	0.0539646
10.0204	0.0988813
15.1037	0.130381
20.2704	0.154298
25.1037	0.167715
