Adsorption isotherm of Nitrogen on ED-ZIF-8
DOI: 10.1002/Aic.13970
Adsorbate Nitrogen: InChIKey IJGRMHOSHXDMSA-UHFFFAOYSA-N
Temperature: 298 K
Tabular data in the source: 0
pressure (bar)	uptake (mg/m2)
1.06205	0.0126811
2.93705	0.0606811
5.06205	0.112681
10.0204	0.247348
14.9787	0.372681
20.1037	0.514014
25.1037	0.647348
