Adsorption isotherm of Nitrogen on ED-ZIF-8
DOI: 10.1002/Aic.13970
Adsorbate Nitrogen: InChIKey IJGRMHOSHXDMSA-UHFFFAOYSA-N
Temperature: 298 K
Tabular data in the source: 0
pressure (bar)	uptake (mmol/g)
0.895382	0.113147
3.02038	0.6366
5.06205	1.13626
10.0204	2.50438
15.062	3.8368
20.062	5.31199
25.0204	6.60873
