Adsorption isotherm of Carbon Dioxide on ZIF-8
DOI: 10.1002/Aic.13970
Adsorbate Carbon Dioxide: InChIKey CURLTUGMZLYLDI-UHFFFAOYSA-N
Temperature: 328 K
Tabular data in the source: 0
pressure (bar)	uptake (mmol/g)
0.0203823	0.0286075
0.520382	0.142217
1.31205	0.274762
5.14538	1.25938
10.062	2.26294
15.2287	3.0014
20.0204	3.51265
22.6454	3.68306
25.062	3.83454
