Adsorption isotherm of Carbon Dioxide on ED-ZIF-8
DOI: 10.1002/Aic.13970
Adsorbate Carbon Dioxide: InChIKey CURLTUGMZLYLDI-UHFFFAOYSA-N
Temperature: 298 K
Tabular data in the source: 0
pressure (bar)	uptake (mg/m2)
0.562049	0.0113813
1.02038	0.0201313
3.02038	0.0784646
5.06205	0.130965
8.06205	0.187548
11.1037	0.223715
15.2287	0.255215
20.0204	0.281465
25.187	0.305965
