Adsorption isotherm of Nitrogen on ED-ZIF-8
DOI: 10.1002/Aic.13970
Adsorbate Nitrogen: InChIKey IJGRMHOSHXDMSA-UHFFFAOYSA-N
Temperature: 298 K
Tabular data in the source: 0
pressure (bar)	uptake (mmol/g)
1.02038	0.0808971
3.06205	0.562802
5.02038	1.09825
10.1037	2.49042
14.9787	3.7755
20.187	5.22122
25.062	6.45275
