Adsorption isotherm of Carbon Dioxide on ED-ZIF-8
DOI: 10.1002/Aic.13970
Adsorbate Carbon Dioxide: InChIKey CURLTUGMZLYLDI-UHFFFAOYSA-N
Temperature: 328 K
Tabular data in the source: 0
pressure (bar)	uptake (mg/m2)
0.478716	0.00671465
1.18705	0.0137146
3.14538	0.037048
5.06205	0.0609646
7.93705	0.0936313
11.0204	0.125715
15.1037	0.167131
20.062	0.208548
25.1454	0.242381
