Adsorption isotherm of Carbon Dioxide on ZIF-8
DOI: 10.1002/Aic.13970
Adsorbate Carbon Dioxide: InChIKey CURLTUGMZLYLDI-UHFFFAOYSA-N
Temperature: 298 K
Tabular data in the source: 0
pressure (bar)	uptake (mg/m2)
0.228716	0.00321465
0.562049	0.00846465
0.978716	0.0172146
4.97872	0.0907146
10.062	0.150215
15.1454	0.178798
20.1037	0.196298
25.1037	0.209131
