Adsorption isotherm of Nitrogen on ZIF-8
DOI: 10.1002/Aic.13970
Adsorbate Nitrogen: InChIKey IJGRMHOSHXDMSA-UHFFFAOYSA-N
Temperature: 318 K
Tabular data in the source: 0
pressure (bar)	uptake (mmol/g)
0.062049	0.0179738
1.10372	0.0893538
3.10372	0.434357
5.10372	0.74367
10.1454	1.58833
15.062	2.55196
20.1454	3.4918
25.187	4.40784
