Adsorption isotherm of Nitrogen on ZIF-8
DOI: 10.1002/Aic.13970
Adsorbate Nitrogen: InChIKey IJGRMHOSHXDMSA-UHFFFAOYSA-N
Temperature: 328 K
Tabular data in the source: 0
pressure (bar)	uptake (mg/m2)
1.14538	0.0140144
3.14538	0.0566811
5.06205	0.0926811
7.31205	0.135348
10.062	0.194014
11.9787	0.238014
14.8954	0.308681
17.6037	0.370014
19.937	0.427348
25.0204	0.543348
