Adsorption isotherm of Water on ZIF-8
DOI: 10.1002/Aic.13970
Adsorbate Water: InChIKey XLYOFNOQVPJJNP-UHFFFAOYSA-N
Temperature: 298 K
Tabular data in the source: 0
pressure (bar)	uptake (mmol/g)
7.88e-05	-0.000181
0.00175716	0.003889
0.00324549	0.012769
0.00463882	0.022389
0.00638049	0.036819
0.00796382	0.053469
0.00945216	0.073079
0.0109722	0.092319
0.0131255	0.124509
0.0143922	0.144489
0.0157222	0.166689
0.0182238	0.210349
