Adsorption isotherm of Nitrogen on ED-ZIF-8
DOI: 10.1002/Aic.13970
Adsorbate Nitrogen: InChIKey IJGRMHOSHXDMSA-UHFFFAOYSA-N
Temperature: 308 K
Tabular data in the source: 0
pressure (bar)	uptake (mg/m2)
0.978716	0.0126811
2.93705	0.0566811
4.97872	0.0980144
10.1037	0.212681
15.187	0.324681
20.0204	0.454014
25.1037	0.583348
