Adsorption isotherm of Nitrogen on ZIF-8
DOI: 10.1002/Aic.13970
Adsorbate Nitrogen: InChIKey IJGRMHOSHXDMSA-UHFFFAOYSA-N
Temperature: 298 K
Tabular data in the source: 0
pressure (bar)	uptake (mmol/g)
0.062049	0.0179738
1.14538	0.125044
3.10372	0.52953
5.10372	0.9935
10.0204	2.0523
14.937	3.08731
20.1037	4.2175
25.0204	5.25251
