Adsorption isotherm of Nitrogen on ZIF-8
DOI: 10.1002/Aic.13970
Adsorbate Nitrogen: InChIKey IJGRMHOSHXDMSA-UHFFFAOYSA-N
Temperature: 298 K
Tabular data in the source: 0
pressure (bar)	uptake (mmol/g)
0.097482	0.00225325
0.149149	0.00465325
0.197482	0.00795325
0.297482	0.0136532
0.397482	0.0214532
0.495815	0.0292532
0.649149	0.0409532
0.702482	0.0460532
0.797482	0.0544532
0.895815	0.0628532
0.995815	0.0712532
