Adsorption isotherm of Carbon Dioxide on ED-ZIF-8
DOI: 10.1002/Aic.13970
Adsorbate Carbon Dioxide: InChIKey CURLTUGMZLYLDI-UHFFFAOYSA-N
Temperature: 308 K
Tabular data in the source: 0
pressure (bar)	uptake (mg/m2)
0.562049	0.00788131
0.978716	0.0166313
2.97872	0.0481313
5.02038	0.0837146
8.10372	0.129798
11.1037	0.171798
15.187	0.211465
20.2287	0.249965
25.1037	0.276798
