Adsorption isotherm of Carbon Dioxide on ED-ZIF-8
DOI: 10.1002/Aic.13970
Adsorbate Carbon Dioxide: InChIKey CURLTUGMZLYLDI-UHFFFAOYSA-N
Temperature: 308 K
Tabular data in the source: 0
pressure (bar)	uptake (mmol/g)
0.395382	0.236892
0.937049	0.558787
2.93705	1.58128
5.02038	2.75525
8.02038	4.21324
11.0204	5.53869
15.062	6.82627
19.937	8.01918
25.0204	8.98486
