Adsorption isotherm of Nitrogen on ED-ZIF-8
DOI: 10.1002/Aic.13970
Adsorbate Nitrogen: InChIKey IJGRMHOSHXDMSA-UHFFFAOYSA-N
Temperature: 328 K
Tabular data in the source: 0
pressure (bar)	uptake (mmol/g)
1.02038	0.0893538
3.22872	0.398667
4.97872	0.696084
10.1037	1.64782
15.062	2.59955
19.9787	3.74163
25.0204	4.95509
