Adsorption isotherm of Carbon Dioxide on ED-ZIF-8
DOI: 10.1002/Aic.13970
Adsorbate Carbon Dioxide: InChIKey CURLTUGMZLYLDI-UHFFFAOYSA-N
Temperature: 318 K
Tabular data in the source: 0
pressure (bar)	uptake (mg/m2)
0.520382	0.00788131
0.978716	0.0148813
2.97872	0.0417146
5.10372	0.068548
8.06205	0.108215
11.1037	0.151965
15.0204	0.192215
20.187	0.228965
25.2287	0.256965
