Adsorption isotherm of Nitrogen on ZIF-8
DOI: 10.1002/Aic.13970
Adsorbate Nitrogen: InChIKey IJGRMHOSHXDMSA-UHFFFAOYSA-N
Temperature: 298 K
Tabular data in the source: 0
pressure (bar)	uptake (mmol/g)
1.02038	0.0808971
2.18705	0.348622
3.10372	0.562802
5.02038	0.991162
6.81205	1.25889
10.1454	1.95497
13.2287	2.65106
15.0204	3.02587
18.062	3.66841
20.062	4.09677
22.1454	4.57868
25.0204	5.16767
