Adsorption isotherm of Carbon Dioxide on ED-ZIF-8
DOI: 10.1002/Aic.13970
Adsorbate Carbon Dioxide: InChIKey CURLTUGMZLYLDI-UHFFFAOYSA-N
Temperature: 328 K
Tabular data in the source: 0
pressure (bar)	uptake (mmol/g)
0.437049	0.236892
1.18705	0.445177
3.14538	1.16471
5.02038	1.97891
8.14538	3.13395
11.1454	4.17537
15.062	5.44402
19.937	6.65586
25.0204	7.81089
