Adsorption isotherm of Carbon Dioxide on ZIF-8
DOI: 10.1002/Aic.13970
Adsorbate Carbon Dioxide: InChIKey CURLTUGMZLYLDI-UHFFFAOYSA-N
Temperature: 298 K
Tabular data in the source: 0
pressure (bar)	uptake (mmol/g)
0.395382	0.196164
0.895382	0.417705
2.56205	1.1505
5.02038	2.12187
7.18705	2.75241
8.89538	3.1955
9.77038	3.45112
11.562	3.70675
13.687	3.96237
14.9787	4.11575
17.1037	4.26912
20.1037	4.54179
22.2287	4.71221
25.1037	4.88262
