Adsorption isotherm of Carbon Dioxide on ZIF-8
DOI: 10.1002/Aic.13970
Adsorbate Carbon Dioxide: InChIKey CURLTUGMZLYLDI-UHFFFAOYSA-N
Temperature: 298 K
Tabular data in the source: 0
pressure (bar)	uptake (mmol/g)
0.103716	-0.00926255
0.395382	0.142217
1.02038	0.350502
1.93705	0.767072
4.97872	2.07359
6.77038	2.58483
10.1454	3.47478
15.1037	4.11857
20.187	4.5162
22.5204	4.68662
25.2287	4.81916
