Adsorption isotherm of Carbon Dioxide on ZIF-8
DOI: 10.1002/Aic.13970
Adsorbate Carbon Dioxide: InChIKey CURLTUGMZLYLDI-UHFFFAOYSA-N
Temperature: 308 K
Tabular data in the source: 0
pressure (bar)	uptake (mg/m2)
0.353716	0.00496465
0.853716	0.0148813
3.39538	0.0452146
5.10372	0.0656313
10.062	0.120465
15.1454	0.157798
20.062	0.176465
25.187	0.189298
