Adsorption isotherm of Carbon Dioxide on ZIF-8
DOI: 10.1002/Aic.13970
Adsorbate Carbon Dioxide: InChIKey CURLTUGMZLYLDI-UHFFFAOYSA-N
Temperature: 308 K
Tabular data in the source: 0
pressure (bar)	uptake (mmol/g)
0.103716	-0.00926255
0.437049	0.104347
1.02038	0.293697
3.68705	1.08897
4.93705	1.44873
8.27038	2.28187
9.97872	2.71738
15.062	3.62626
19.9787	4.09963
25.0204	4.38366
