Adsorption isotherm of Nitrogen on ZIF-8
DOI: 10.1002/Aic.13970
Adsorbate Nitrogen: InChIKey IJGRMHOSHXDMSA-UHFFFAOYSA-N
Temperature: 318 K
Tabular data in the source: 0
pressure (bar)	uptake (mg/m2)
1.10372	0.0193478
3.06205	0.0620144
4.52038	0.0953478
6.72872	0.143348
8.93705	0.194014
11.3537	0.256681
14.7287	0.342014
17.187	0.402014
18.8954	0.447348
20.7287	0.494014
22.8954	0.547348
24.937	0.602014
