Adsorption isotherm of Carbon Dioxide on ED-ZIF-8
DOI: 10.1002/Aic.13970
Adsorbate Carbon Dioxide: InChIKey CURLTUGMZLYLDI-UHFFFAOYSA-N
Temperature: 298 K
Tabular data in the source: 0
pressure (bar)	uptake (mmol/g)
0.174459	-0.0225585
0.624459	0.234963
1.17446	0.462188
3.12446	1.23475
5.02446	2.09821
8.57446	3.24948
10.1245	3.77967
13.0245	4.46135
15.0245	4.96124
18.2245	5.55203
19.9245	5.87014
23.1745	6.2943
24.9745	6.59726
28.1245	6.96082
30.0245	7.21834
