Adsorption isotherm of Nitrogen on ED-ZIF-8
DOI: 10.1002/Aic.13970
Adsorbate Nitrogen: InChIKey IJGRMHOSHXDMSA-UHFFFAOYSA-N
Temperature: 318 K
Tabular data in the source: 0
pressure (bar)	uptake (mg/m2)
0.937049	0.0086811
3.02038	0.0460144
5.14538	0.0873478
10.1037	0.184681
15.0204	0.284681
20.0204	0.407348
25.1454	0.531348
