Adsorption isotherm of Nitrogen on TPB-TP-COF
DOI: 10.1038/nmat4611
Article source: Figure 2 (e)
Adsorbate Nitrogen: InChIKey IJGRMHOSHXDMSA-UHFFFAOYSA-N
Kind: experiment
Temperature: 77 K
Tabular data in the source: 0
pressure (bar)	uptake (cm3(STP)/g)
0.028949	20.4741
0.050662	21.5517
0.083228	19.3965
0.10856	19.3965
0.141136	19.3965
0.180936	19.3965
0.224364	19.3965
0.262361	20.4741
0.302161	19.3965
0.340158	19.3965
0.387203	19.3965
0.43968	17.2414
0.488528	17.2414
0.537387	17.2414
0.58805	17.2414
0.636899	16.1638
0.685757	17.2414
0.71651	16.1638
0.765369	17.2414
0.814217	17.2414
0.861262	19.3965
0.911925	21.5517
0.951736	26.9397
0.975253	35.5603
0.991536	47.4138
1.0024	62.5
1.0024	79.7414
1.00963	107.759
0.083228	19.3965
0.151987	19.3965
0.358255	19.3965
0.4053	20.4741
0.455962	17.2414
0.501194	19.3965
0.550053	19.3965
0.600715	19.3965
0.651378	19.3965
0.70204	18.319
0.745458	19.3965
0.799748	19.3965
0.846783	21.5517
0.893828	23.7069
0.940874	30.1724
0.968019	46.3362
0.984301	66.8103
1.0024	99.1379
