Adsorption isotherm of Nitrogen on TPB-DMTP-COF
DOI: 10.1038/nmat4611
Article source: Figure 2 (e)
Adsorbate Nitrogen: InChIKey IJGRMHOSHXDMSA-UHFFFAOYSA-N
Kind: experiment
Temperature: 77 K
Tabular data in the source: 0
pressure (bar)	uptake (cm3(STP)/g)
0.025331	40.9483
0.028949	56.0345
0.021714	66.8103
0.021714	73.2759
0.025331	84.0517
0.025331	94.8276
0.025331	107.759
0.025331	116.379
0.025331	133.621
0.025331	144.397
0.025331	157.328
0.025331	168.103
0.028949	183.19
0.032566	193.966
0.036183	219.828
0.037997	245.69
0.043428	265.086
0.057897	292.026
0.068759	323.276
0.09409	375
0.104942	396.552
0.126656	427.802
0.14837	459.052
0.173701	487.069
0.195415	508.621
0.213502	528.017
0.227981	551.724
0.246078	595.905
0.260547	712.284
0.291309	801.724
0.318454	808.19
0.383586	825.431
0.419779	829.741
0.468628	836.207
0.521104	842.672
0.568139	849.138
0.618802	855.603
0.665847	862.069
0.71651	866.379
0.765369	872.845
0.816031	877.155
0.863076	885.776
0.911925	895.474
0.948108	909.483
0.977067	926.724
0.991536	941.81
0.995153	959.052
1.00601	974.138
1.00782	996.767
0.050662	299.569
0.068759	329.741
0.115804	420.259
0.135705	443.966
0.153801	468.75
0.173701	492.457
0.193602	517.241
0.220747	549.569
0.244264	673.491
0.267792	731.681
0.273213	787.716
0.305789	812.5
0.356451	823.276
0.4053	834.052
0.455962	840.517
0.506625	855.603
0.55367	866.379
0.602519	871.767
0.651378	878.233
0.70204	883.621
0.749086	890.086
0.801552	896.552
0.852214	905.172
0.901073	915.948
0.946305	933.19
0.980684	963.362
0.998771	991.379
