Adsorption isotherm of Nitrogen on TPB-DMTP-COF treated with 1,2,4-triazole at 120 â—¦C for one week
DOI: 10.1038/nmat4611
Article source: Figure 2 (e)
Adsorbate Nitrogen: InChIKey IJGRMHOSHXDMSA-UHFFFAOYSA-N
Kind: experiment
Temperature: 77 K
Tabular data in the source: 0
pressure (bar)	uptake (cm3(STP)/g)
0.032566	200.431
0.032566	230.603
0.050662	275.862
0.05428	306.034
0.097708	370.69
0.104942	385.776
0.121225	410.56
0.142939	438.578
0.162839	465.517
0.186367	488.147
0.204464	508.621
0.227981	530.172
0.246078	558.19
0.265978	673.491
0.27683	765.086
0.307592	782.328
0.336541	787.716
0.383586	796.336
0.421583	801.724
0.470442	810.345
0.517477	814.655
0.568139	821.121
0.615185	825.431
0.667661	829.741
0.71651	835.129
0.763555	840.517
0.814217	845.905
0.86488	851.293
0.911925	859.914
0.948108	873.922
0.971636	893.319
0.987919	917.026
1.0024	946.121
1.00782	980.603
1.00963	1008.62
0.061514	303.879
0.072376	338.362
0.153801	469.828
0.197219	517.241
0.235216	544.181
0.246078	663.793
0.267792	726.293
0.282261	784.483
0.358255	799.569
0.421583	817.888
0.45958	818.966
0.506625	825.431
0.551856	835.129
0.602519	838.362
0.651378	844.828
0.70204	849.138
0.752703	853.448
0.801552	858.836
0.857645	866.379
0.915542	879.31
0.951736	903.017
0.977067	952.586
0.989732	980.603
1.00058	1004.31
