Adsorption isotherm of Ethylenediaminetetraacetic Acid on Callovo-Oxfordian Clay Rock
DOI: 10.1016/j.jhydrol.2016.11.014
Article source: Figure 1
Adsorbate Ethylenediaminetetraacetic Acid: InChIKey KCXVZYZYPLLWCC-UHFFFAOYSA-N
Kind: experiment
Temperature: 294 K
Tabular data in the source: 0
pressure (bar)	uptake (mmol/g)
1.01325	0
1.01325	0
1.01325	0
1.01325	2e-06
1.01325	7e-06
1.01325	3e-05
1.01325	0.000167
1.01325	0.000622
1.01325	0.002809
