Adsorption isotherm of Eu(III) on Callovo-Oxfordian Clay Rock
DOI: 10.1016/j.jhydrol.2016.11.014
Article source: Figure 1
Adsorbate Eu(III): InChIKey LNBHUCHAFZUEGJ-UHFFFAOYSA-N
Kind: experiment
Temperature: 294 K
Tabular data in the source: 0
pressure (bar)	uptake (mmol/g)
1.01325	3e-06
1.01325	1.3e-05
1.01325	6.1e-05
1.01325	9.5e-05
1.01325	0.00073
1.01325	0.000697
