Adsorption isotherm of Carbon Dioxide on Zeolite 13X
DOI: 10.1007/s10450-018-00004-2
Article source: Table S-1 / Figure 3a
Adsorbate Carbon Dioxide: InChIKey CURLTUGMZLYLDI-UHFFFAOYSA-N
Kind: experiment
Isotherm type: excess
Temperature: 423 K
Tabular data in the source: 1
pressure (bar)	uptake (mmol/g)
0	0
0.18	0.744
0.39	1.145
0.59	1.43
0.79	1.648
0.99	1.838
1.19	2
1.39	2.137
1.59	2.26
1.8	2.371
2	2.47
2.5	2.681
3	2.859
3.5	3.011
4	3.145
4.5	3.26
5	3.361
