Adsorption isotherm of Carbon Dioxide, Nitrogen, Helium on Zeolite 13X
DOI: 10.1007/s10450-018-00004-2
Article source: Table S-3 / Figure 6
Adsorbate Carbon Dioxide: InChIKey CURLTUGMZLYLDI-UHFFFAOYSA-N
Adsorbate Nitrogen: InChIKey IJGRMHOSHXDMSA-UHFFFAOYSA-N
Adsorbate Helium: InChIKey SWQJXJOGLNCZEY-UHFFFAOYSA-N
Kind: experiment
Isotherm type: excess
Temperature: 295 K
Tabular data in the source: 1
pressure (bar)	Carbon Dioxide fraction	Carbon Dioxide uptake (mmol/g)	Nitrogen fraction	Nitrogen uptake (mmol/g)	Helium fraction	Helium uptake (mmol/g)	total uptake (mmol/g)
0.995	0.05	3.09	0.45	0.0281			
0.975	0.1	3.498	0.4	0.0192			
0.995	0.25	4.2	0.25	0.0186			
0.995	0.4	4.708	0.1	0.0082			
