Adsorption isotherm of Nitrogen on Zeolite 13X
DOI: 10.1007/s10450-018-00004-2
Article source: Table S-2 / Figure 3b
Adsorbate Nitrogen: InChIKey IJGRMHOSHXDMSA-UHFFFAOYSA-N
Kind: experiment
Isotherm type: excess
Temperature: 298 K
Tabular data in the source: 1
pressure (bar)	uptake (mmol/g)
0	0
0.0053	0.0021
0.0069	0.0029
0.0089	0.0038
0.0108	0.0052
0.0135	0.0064
0.0177	0.0083
0.0224	0.0105
0.0283	0.0129
0.0356	0.0165
0.0452	0.0208
0.057	0.0259
0.0719	0.0323
0.0909	0.0405
0.1149	0.0507
0.1451	0.0638
0.18	0.1
0.1836	0.0802
0.2321	0.1008
0.2932	0.1263
0.3741	0.1595
0.39	0.1801
0.4724	0.1987
0.59	0.2595
0.5936	0.2453
0.7502	0.3039
0.79	0.3317
0.8522	0.3404
0.9485	0.3729
0.99	0.4045
1.0134	0.3947
1.0746	0.4162
1.19	0.4757
1.203	0.4581
1.39	0.5403
1.6	0.6047
1.79	0.6645
1.99	0.7226
2.49	0.8606
2.99	0.988
3.5	1.1034
4	1.2112
4.5	1.3111
5.01	1.4042
