Adsorption isotherm of Nitrogen on Zeolite 13X
DOI: 10.1007/s10450-018-00004-2
Article source: Table S-2 / Figure 3b
Adsorbate Nitrogen: InChIKey IJGRMHOSHXDMSA-UHFFFAOYSA-N
Kind: experiment
Isotherm type: excess
Temperature: 373 K
Tabular data in the source: 1
pressure (bar)	uptake (mmol/g)
0	0
0.0016	0.0001
0.0053	0.0005
0.0069	0.0006
0.0088	0.0007
0.0108	0.0012
0.0136	0.0013
0.0203	0.002
0.0224	0.0023
0.0283	0.003
0.0357	0.0038
0.0451	0.0048
0.0573	0.0061
0.072	0.0078
0.091	0.01
0.1149	0.0126
0.1452	0.0159
0.18	0.0237
0.1836	0.0202
0.232	0.0255
0.2935	0.0315
0.3704	0.0398
0.38	0.0402
0.4729	0.0501
0.59	0.0563
0.5959	0.0624
0.7523	0.0761
0.79	0.0759
0.8512	0.0854
0.9485	0.0949
0.99	0.0924
1.0147	0.1007
1.0756	0.1065
1.19	0.1088
1.2028	0.1189
1.4	0.125
1.59	0.1411
1.79	0.156
1.99	0.1735
2.5	0.2133
3	0.2541
3.5	0.2912
3.99	0.3287
4.5	0.3659
4.99	0.402
