Adsorption isotherm of Carbon Dioxide on Zeolite 13X
DOI: 10.1007/s10450-018-00004-2
Article source: Table S-1 / Figure 3a
Adsorbate Carbon Dioxide: InChIKey CURLTUGMZLYLDI-UHFFFAOYSA-N
Kind: experiment
Isotherm type: excess
Temperature: 398 K
Tabular data in the source: 1
pressure (bar)	uptake (mmol/g)
0	0
0.18	1.233
0.39	1.694
0.59	2.023
0.79	2.272
0.99	2.463
1.19	2.627
1.4	2.769
1.6	2.891
1.79	3.001
2	3.102
2.5	3.311
3	3.485
3.51	3.631
4	3.756
4.49	3.866
5.01	3.966
