Adsorption isotherm of Nitrogen on Zeolite 13X
DOI: 10.1007/s10450-018-00004-2
Article source: Table S-2 / Figure 3b
Adsorbate Nitrogen: InChIKey IJGRMHOSHXDMSA-UHFFFAOYSA-N
Kind: experiment
Isotherm type: excess
Temperature: 273 K
Tabular data in the source: 1
pressure (bar)	uptake (mmol/g)
0.0015	0.001
0.0052	0.0042
0.0069	0.0055
0.0088	0.0073
0.0109	0.0093
0.0135	0.0115
0.0177	0.0149
0.0224	0.0193
0.0283	0.0245
0.0357	0.0308
0.0451	0.0388
0.0566	0.0485
0.0719	0.0621
0.091	0.0781
0.1149	0.0981
0.1452	0.1233
0.1836	0.1545
0.2318	0.1925
0.2939	0.2402
0.372	0.2983
0.4701	0.3678
0.5951	0.4519
0.753	0.5512
0.852	0.6105
0.9521	0.6671
1.0134	0.7016
1.0761	0.7355
1.2008	0.8009
