Adsorption isotherm of Nitrogen on Zeolite 13X
DOI: 10.1007/s10450-018-00004-2
Article source: Table S-2 / Figure 3b
Adsorbate Nitrogen: InChIKey IJGRMHOSHXDMSA-UHFFFAOYSA-N
Kind: experiment
Isotherm type: excess
Temperature: 323 K
Tabular data in the source: 1
pressure (bar)	uptake (mmol/g)
0	0
0.0016	0.0002
0.0053	0.0012
0.0069	0.0016
0.0088	0.002
0.0108	0.0028
0.0135	0.0037
0.0178	0.0049
0.0224	0.006
0.0282	0.0077
0.0358	0.0097
0.0451	0.0122
0.0571	0.0151
0.0719	0.0191
0.091	0.024
0.1149	0.0303
0.1453	0.0383
0.18	0.0575
0.1835	0.0482
0.232	0.0603
0.2931	0.0759
0.374	0.0956
0.38	0.0987
0.4726	0.1193
0.59	0.1406
0.5959	0.1478
0.7529	0.1821
0.79	0.1828
0.8525	0.2045
0.9513	0.2261
0.99	0.2222
1.0136	0.2392
1.0748	0.2518
1.19	0.2617
1.2019	0.2787
1.39	0.3022
1.59	0.3401
1.79	0.3771
1.99	0.4118
2.5	0.4993
2.99	0.5817
3.5	0.6598
4	0.7345
4.5	0.8056
5	0.8727
