Adsorption isotherm of Nitrogen on Zeolite 13X
DOI: 10.1007/s10450-018-00004-2
Article source: Table S-2 / Figure 3b
Adsorbate Nitrogen: InChIKey IJGRMHOSHXDMSA-UHFFFAOYSA-N
Kind: experiment
Isotherm type: excess
Temperature: 398 K
Tabular data in the source: 1
pressure (bar)	uptake (mmol/g)
0	0
0.18	0.0178
0.39	0.0262
0.59	0.0395
0.79	0.0532
0.99	0.0656
1.19	0.0787
1.39	0.0912
1.59	0.1037
1.79	0.1178
1.99	0.1287
2.48	0.1594
2.99	0.189
3.49	0.2173
4	0.2465
4.5	0.273
5.01	0.3022
