Adsorption isotherm of Carbon Dioxide on Zeolite 13X
DOI: 10.1007/s10450-018-00004-2
Article source: Table S-1 / Figure 3a
Adsorbate Carbon Dioxide: InChIKey CURLTUGMZLYLDI-UHFFFAOYSA-N
Kind: experiment
Isotherm type: excess
Temperature: 348 K
Tabular data in the source: 1
pressure (bar)	uptake (mmol/g)
0	0
0.001	0.122
0.002	0.174
0.003	0.229
0.004	0.308
0.005	0.376
0.007	0.496
0.009	0.606
0.011	0.7
0.012	0.755
0.014	0.819
0.015	0.878
0.018	0.972
0.02	1.02
0.022	1.098
0.025	1.168
0.028	1.228
0.032	1.313
0.035	1.37
0.044	1.506
0.057	1.678
0.072	1.82
0.088	1.967
0.117	2.162
0.144	2.309
0.18	2.509
0.181	2.48
0.234	2.679
0.293	2.847
0.37	3.032
0.39	3.025
0.473	3.218
0.59	3.378
0.591	3.397
0.754	3.581
0.79	3.637
0.846	3.672
0.952	3.758
0.99	3.843
1.012	3.805
1.076	3.852
1.19	3.992
1.202	3.932
1.39	4.121
1.59	4.225
1.79	4.326
2	4.411
2.5	4.589
3	4.722
3.5	4.838
4	4.949
4.5	5.043
5	5.111
