Adsorption isotherm of Nitrogen on Zeolite 13X
DOI: 10.1007/s10450-018-00004-2
Article source: Table S-2 / Figure 3b
Adsorbate Nitrogen: InChIKey IJGRMHOSHXDMSA-UHFFFAOYSA-N
Kind: experiment
Isotherm type: excess
Temperature: 423 K
Tabular data in the source: 1
pressure (bar)	uptake (mmol/g)
0	0
0.18	0.0088
0.39	0.021
0.59	0.0323
0.79	0.0415
0.99	0.0514
1.19	0.0611
1.39	0.0702
1.59	0.0796
1.79	0.0891
2	0.1001
2.5	0.1216
3	0.1427
3.5	0.1653
4	0.1862
4.5	0.2071
5	0.2286
