Adsorption isotherm of Carbon Dioxide, Nitrogen on Zeolite 13X
DOI: 10.1007/s10450-018-00004-2
Article source: Table S-3 / Figure 6
Adsorbate Carbon Dioxide: InChIKey CURLTUGMZLYLDI-UHFFFAOYSA-N
Adsorbate Nitrogen: InChIKey IJGRMHOSHXDMSA-UHFFFAOYSA-N
Kind: experiment
Isotherm type: excess
Temperature: 295 K
Tabular data in the source: 1
pressure (bar)	Carbon Dioxide fraction	Carbon Dioxide uptake (mmol/g)	Nitrogen fraction	Nitrogen uptake (mmol/g)	total uptake (mmol/g)
1.015	0.05	2.909	0.95	0.1445	
1.01	0.1	3.461	0.9	0.0811	
0.995	0.15	3.833	0.85	0.0801	
0.96	0.5	4.814	0.5	0.0362	
0.97	0.75	5.375	0.25	0.02	
