Adsorption isotherm of Carbon Dioxide on Zeolite 13X
DOI: 10.1007/s10450-018-00004-2
Article source: Table S-1 / Figure 3a
Adsorbate Carbon Dioxide: InChIKey CURLTUGMZLYLDI-UHFFFAOYSA-N
Kind: experiment
Isotherm type: excess
Temperature: 298 K
Tabular data in the source: 1
pressure (bar)	uptake (mmol/g)
0	0
0.001	1.064
0.002	1.256
0.003	1.384
0.004	1.54
0.005	1.659
0.006	1.756
0.007	1.852
0.009	2.001
0.011	2.127
0.012	2.187
0.013	2.251
0.018	2.468
0.021	2.597
0.028	2.794
0.036	2.99
0.044	3.137
0.057	3.347
0.072	3.514
0.09	3.682
0.114	3.866
0.145	4.047
0.18	4.533
0.184	4.214
0.23	4.371
0.292	4.534
0.372	4.686
0.39	4.957
0.471	4.834
0.59	5.193
0.596	4.972
0.749	5.102
0.79	5.352
0.852	5.175
0.95	5.236
1	5.475
1.013	5.274
1.077	5.308
1.19	5.572
1.201	5.368
1.39	5.653
1.59	5.721
1.79	5.781
1.99	5.833
2.5	5.941
3	6.027
3.49	6.098
4	6.158
4.51	6.21
5	6.256
