Adsorption isotherm of Carbon Dioxide on Zeolite 13X
DOI: 10.1007/s10450-018-00004-2
Article source: Table S-1 / Figure 3a
Adsorbate Carbon Dioxide: InChIKey CURLTUGMZLYLDI-UHFFFAOYSA-N
Kind: experiment
Isotherm type: excess
Temperature: 373 K
Tabular data in the source: 1
pressure (bar)	uptake (mmol/g)
0	0
0.001	0.043
0.002	0.065
0.003	0.085
0.004	0.115
0.005	0.146
0.006	0.196
0.009	0.258
0.011	0.301
0.012	0.333
0.014	0.378
0.015	0.402
0.018	0.467
0.02	0.504
0.022	0.549
0.025	0.604
0.028	0.653
0.032	0.714
0.035	0.764
0.043	0.867
0.056	1.021
0.072	1.175
0.09	1.318
0.115	1.478
0.145	1.636
0.18	1.692
0.183	1.799
0.23	1.965
0.293	2.15
0.371	2.328
0.39	2.191
0.47	2.512
0.59	2.53
0.594	2.698
0.75	2.888
0.79	2.785
0.847	2.988
0.948	3.081
0.99	3.001
1.013	3.134
1.076	3.181
1.19	3.172
1.201	3.273
1.39	3.325
1.59	3.452
1.8	3.56
2	3.66
2.5	3.864
3	4.034
3.5	4.173
4	4.294
4.5	4.403
5	4.498
