Adsorption isotherm of Nitrogen on Zeolite 13X
DOI: 10.1007/s10450-018-00004-2
Article source: Table S-2 / Figure 3b
Adsorbate Nitrogen: InChIKey IJGRMHOSHXDMSA-UHFFFAOYSA-N
Kind: experiment
Isotherm type: excess
Temperature: 348 K
Tabular data in the source: 1
pressure (bar)	uptake (mmol/g)
0	0
0.0015	0.0001
0.0053	0.0007
0.0069	0.0009
0.0088	0.0013
0.0108	0.0016
0.0135	0.002
0.0178	0.0027
0.0224	0.0034
0.0283	0.0044
0.0358	0.0053
0.045	0.0066
0.0571	0.0084
0.072	0.0107
0.091	0.0135
0.1149	0.017
0.1453	0.0214
0.18	0.0276
0.1836	0.0272
0.232	0.0341
0.293	0.0426
0.3735	0.0539
0.38	0.0558
0.4719	0.0681
0.59	0.0844
0.5955	0.0847
0.7535	0.1059
0.79	0.1106
0.8515	0.1191
0.9511	0.1322
0.99	0.1375
1.0148	0.1407
1.0762	0.1485
1.19	0.1647
1.2012	0.164
1.39	0.1891
1.59	0.2134
1.79	0.2386
1.99	0.2626
2.49	0.3208
2.99	0.3761
3.5	0.4312
4	0.4834
4.5	0.5347
5	0.5832
