Adsorption isotherm of Carbon Dioxide on Zeolite 13X
DOI: 10.1007/s10450-018-00004-2
Article source: Table S-1 / Figure 3a
Adsorbate Carbon Dioxide: InChIKey CURLTUGMZLYLDI-UHFFFAOYSA-N
Kind: experiment
Isotherm type: excess
Temperature: 323 K
Tabular data in the source: 1
pressure (bar)	uptake (mmol/g)
0	0
0.001	0.386
0.002	0.527
0.003	0.648
0.004	0.82
0.005	0.945
0.006	1.053
0.007	1.15
0.009	1.284
0.011	1.408
0.012	1.459
0.013	1.537
0.017	1.67
0.022	1.832
0.028	1.976
0.036	2.136
0.045	2.29
0.056	2.462
0.072	2.647
0.09	2.82
0.115	3.013
0.144	3.197
0.18	3.35
0.184	3.387
0.23	3.58
0.297	3.778
0.373	3.956
0.39	3.885
0.47	4.131
0.59	4.203
0.594	4.307
0.753	4.477
0.79	4.427
0.85	4.567
0.951	4.64
0.99	4.598
1.013	4.684
1.077	4.727
1.19	4.729
1.203	4.806
1.39	4.834
1.6	4.924
1.79	5.004
2	5.072
2.5	5.213
3	5.325
3.5	5.417
4	5.496
4.5	5.565
4.99	5.625
