Adsorption isotherm of Nitrogen on C10Gua-HKUST
DOI: 10.1039/C4ta02568g
Adsorbate Nitrogen: InChIKey IJGRMHOSHXDMSA-UHFFFAOYSA-N
Temperature: 77 K
Tabular data in the source: 0
pressure (bar)	uptake (cm3(STP)/g)
2.77743e-05	172.048
0.0115223	175.442
0.0295955	179.69
0.0427445	182.243
0.0608336	184.804
0.0838783	185.688
0.106907	188.258
0.136538	189.153
0.164515	190.888
0.189214	190.931
0.215544	192.663
0.245176	193.558
0.273152	195.294
0.30937	196.2
0.347242	196.266
0.385114	196.331
0.419685	197.235
0.454257	198.138
0.482232	199.873
0.521752	199.942
0.564547	201.703
0.610653	201.783
0.653457	202.701
0.683081	204.439
0.707772	205.325
0.732471	205.368
0.758816	205.414
0.798312	208.013
0.821356	208.896
0.841084	212.304
0.864113	214.874
0.893712	219.142
0.915055	225.926
0.926534	231.006
0.939619	240.306
0.946094	252.125
0.955832	267.322
0.964001	274.083
