Adsorption isotherm of Nitrogen on CuBTC
DOI: 10.1039/C4ta02568g
Adsorbate Nitrogen: InChIKey IJGRMHOSHXDMSA-UHFFFAOYSA-N
Temperature: 77 K
Tabular data in the source: 0
pressure (bar)	uptake (cm3(STP)/g)
0.00273378	234.463
0.00760221	242.061
0.019065	248.828
0.0338608	251.384
0.0486565	253.94
0.0651068	255.655
0.0815492	258.214
0.0963608	259.083
0.112819	259.955
0.129277	260.827
0.144081	262.539
0.160539	263.411
0.177005	263.44
0.193464	264.312
0.209922	265.184
0.224734	266.053
0.241191	266.925
0.25765	267.797
0.274116	267.825
0.290575	268.697
0.305386	269.566
0.321844	270.438
0.338303	271.31
0.354769	271.339
0.371227	272.211
0.387693	272.239
0.402505	273.108
0.418963	273.98
0.435421	274.852
0.451887	274.881
0.468345	275.753
0.484812	275.781
0.50127	276.653
0.516081	277.523
0.53254	278.394
0.549006	278.423
0.565464	279.295
0.581931	279.324
0.598388	280.196
0.614855	280.224
0.629666	281.093
0.646133	281.122
0.662591	281.994
0.679057	282.022
0.695515	282.894
0.711981	282.923
0.72844	283.795
0.743252	284.664
0.759717	284.693
0.776183	284.721
0.792642	285.593
0.809108	285.622
0.82392	286.491
0.840377	287.363
0.856844	287.391
0.873302	288.263
0.889761	289.135
0.904573	290.004
0.92103	290.876
0.935834	292.589
0.940766	293.441
0.948984	295.142
0.958815	300.219
0.963691	306.974
