Adsorption isotherm of Nitrogen on C14Gua-HKUST
DOI: 10.1039/C4ta02568g
Adsorbate Nitrogen: InChIKey IJGRMHOSHXDMSA-UHFFFAOYSA-N
Temperature: 77 K
Tabular data in the source: 0
pressure (bar)	uptake (cm3(STP)/g)
0.00210291	126.51
0.00862589	133.268
0.0234058	137.511
0.0415106	138.385
0.066194	140.115
0.0941548	143.537
0.120501	143.583
0.153425	144.483
0.179763	145.372
0.202808	146.256
0.222559	147.133
0.245612	147.173
0.26701	148.054
0.291701	148.94
0.314754	148.98
0.334497	150.701
0.359196	150.744
0.382234	152.471
0.403639	152.508
0.429985	152.554
0.451384	153.434
0.474428	154.318
0.499127	154.361
0.52218	154.401
0.536983	156.113
0.564968	157.005
0.594607	157.056
0.629179	157.96
0.650584	157.997
0.67693	158.043
0.703268	158.932
0.727968	158.975
0.754306	159.864
0.787222	161.608
0.816853	162.503
0.848131	163.4
0.874469	164.289
0.902454	165.181
0.917233	169.424
0.93366	173.669
0.95334	182.137
0.956498	196.48
0.961247	216.729
0.964445	226.855
