Adsorption isotherm of Nitrogen on CuBTC
DOI: 10.1039/C4ta02568g
Adsorbate Nitrogen: InChIKey IJGRMHOSHXDMSA-UHFFFAOYSA-N
Temperature: 77 K
Tabular data in the source: 0
pressure (bar)	uptake (cm3(STP)/g)
0.00624614	227.899
0.0138951	237.473
0.0241551	240.677
0.0421154	245.487
0.0677962	248.717
0.0883367	251.938
0.111458	253.569
0.142289	255.213
0.17055	256.853
0.201382	258.498
0.234783	260.146
0.260474	261.782
0.286165	263.418
0.317007	263.468
0.355538	266.719
0.388939	268.367
0.414631	270.003
0.442902	270.049
0.466024	271.681
0.496855	273.325
0.532826	274.978
0.561088	276.618
0.586779	278.253
0.61248	278.296
0.643301	281.533
0.669002	281.575
0.676712	281.588
0.702404	283.224
0.733225	286.462
0.764056	288.106
0.792317	289.746
0.817998	292.975
0.851399	294.624
0.8822	301.049
0.897559	310.636
0.907758	323.401
0.925636	340.961
0.933255	355.316
0.940852	372.858
0.94333	387.205
0.948358	404.743
0.950846	417.496
0.958474	430.257
