Adsorption isotherm of Nitrogen on C16Gua-HKUST
DOI: 10.1039/C4ta02568g
Adsorbate Nitrogen: InChIKey IJGRMHOSHXDMSA-UHFFFAOYSA-N
Temperature: 77 K
Tabular data in the source: 0
pressure (bar)	uptake (cm3(STP)/g)
0.00226956	108.799
0.0120937	114.72
0.0268974	116.432
0.041701	118.145
0.054874	118.168
0.0713322	119.04
0.0861359	120.752
0.102602	120.781
0.119061	121.652
0.133872	122.522
0.148683	123.391
0.16515	123.419
0.181608	124.291
0.198074	124.32
0.214532	125.192
0.230991	126.064
0.247457	126.092
0.262269	126.961
0.278735	126.99
0.295192	127.862
0.311659	127.89
0.326471	128.76
0.342937	128.788
0.357749	129.657
0.374215	129.686
0.390672	130.558
0.407139	130.586
0.423597	131.458
0.440064	131.487
0.456522	132.359
0.472987	132.387
0.487799	133.257
0.502611	134.126
0.522363	135.003
0.542122	135.038
0.558573	136.753
0.575039	136.782
0.586557	137.645
0.601377	137.671
0.61455	137.693
0.632662	137.725
0.657354	138.611
0.675466	138.643
0.696872	138.68
0.716623	139.557
0.733074	141.273
0.751187	141.304
0.770946	141.339
0.792345	142.219
0.808794	143.934
0.8269	144.809
0.848305	144.846
0.868049	146.567
0.879583	145.744
0.900965	148.311
0.915737	153.397
0.927232	156.791
0.937049	163.555
0.941917	171.153
0.950062	180.445
0.956546	191.42
0.966315	203.244
