Adsorption isotherm of Nitrogen on C12Gua-HKUST
DOI: 10.1039/C4ta02568g
Adsorbate Nitrogen: InChIKey IJGRMHOSHXDMSA-UHFFFAOYSA-N
Temperature: 77 K
Tabular data in the source: 0
pressure (bar)	uptake (cm3(STP)/g)
0.00192039	145.907
0.0133991	150.987
0.0314722	155.235
0.054509	156.962
0.0791924	158.692
0.102221	161.262
0.128552	162.994
0.149949	163.875
0.179588	163.926
0.20922	164.821
0.235558	165.71
0.266836	166.608
0.28988	167.491
0.314579	167.534
0.337632	167.574
0.365616	168.466
0.396894	169.364
0.426533	169.415
0.459466	169.472
0.48251	170.356
0.508856	170.402
0.528591	172.966
0.551645	173.006
0.57305	173.043
0.592802	173.921
0.612562	173.955
0.635606	174.838
0.66196	174.041
0.68666	174.084
0.706411	174.961
0.734403	175.01
0.75581	175.047
0.783778	177.626
0.805184	177.663
0.838117	177.72
0.861161	178.604
0.894069	181.191
0.913821	182.068
0.935204	184.636
0.946682	189.716
0.949911	196.469
0.954764	205.754
0.959609	215.883
0.961161	226.006
0.96272	235.286
0.964271	245.409
0.969076	259.755
