Adsorption isotherm of Carbon Dioxide on [BMIM][SCN]/IRMOF-1
DOI: 10.1039/c2cp23972h
Adsorbate Carbon Dioxide: InChIKey CURLTUGMZLYLDI-UHFFFAOYSA-N
Temperature: 300 K
Tabular data in the source: 0
pressure (bar)	uptake (mmol/g)
0.0884956	0.0436893
0.973451	0.34466
1.9764	0.567961
4.0118	0.88835
5.9882	1.1068
7.9941	1.30583
10	1.44175
