Adsorption isotherm of Nitrogen on [BMIM][SCN]/IRMOF-1
DOI: 10.1039/c2cp23972h
Adsorbate Nitrogen: InChIKey IJGRMHOSHXDMSA-UHFFFAOYSA-N
Temperature: 300 K
Tabular data in the source: 0
pressure (bar)	uptake (mmol/g)
0.0589971	0.0145631
0.973451	0.0728155
1.9764	0.126214
4.0118	0.203883
5.9882	0.257282
7.9941	0.291262
9.9705	0.320388
