Adsorption isotherm of Carbon Dioxide on Mg-MOF-74
DOI: 10.1021/acs.iecr.6b04270
Article source: Figure 3
Adsorbate Carbon Dioxide: InChIKey CURLTUGMZLYLDI-UHFFFAOYSA-N
Kind: experiment
Temperature: 313 K
Tabular data in the source: 0
pressure (bar)	uptake (mmol/g)
0	0
0.00964	1.31491
0.020022	2.22786
0.030033	2.86828
0.040786	3.3997
0.049685	3.80848
0.059325	4.09462
0.069336	4.36715
0.079718	4.6056
0.089729	4.78955
0.100111	4.95307
0.150167	5.53217
0.200222	5.89326
0.250649	6.16578
0.299592	6.3838
0.350019	6.52006
0.400445	6.66995
0.450501	6.79258
0.499815	6.9084
0.550241	7.02422
0.599926	7.09235
0.649981	7.20818
0.699666	7.28993
0.750834	7.37169
0.800148	7.45344
0.850204	7.51476
0.90026	7.59652
0.950315	7.66465
1	7.73278
