Adsorption isotherm of Nitrogen on Mg-MOF-74
DOI: 10.1021/acs.iecr.6b04270
Article source: Figure 3
Adsorbate Nitrogen: InChIKey IJGRMHOSHXDMSA-UHFFFAOYSA-N
Kind: experiment
Temperature: 313 K
Tabular data in the source: 0
pressure (bar)	uptake (mmol/g)
0	0
0.010382	0
0.020022	0.006813
0.029663	0.006813
0.039303	0.020439
0.049685	0.020439
0.059325	0.047691
0.069707	0.047691
0.08046	0.047691
0.089729	0.047691
0.100853	0.06813
0.150538	0.102195
0.200593	0.129447
0.249907	0.156699
0.300334	0.197578
0.35076	0.22483
0.400445	0.265708
0.45013	0.299773
0.500185	0.333838
0.54987	0.381529
0.600297	0.401968
0.650352	0.449659
0.700408	0.463285
0.750093	0.510977
0.800519	0.551855
0.850204	0.579107
0.90026	0.599546
0.949944	0.647237
1	0.667676
