Adsorption isotherm of Carbon Dioxide on Zeolite 13X
DOI: 10.1021/acs.iecr.6b04270
Article source: Figure 3
Adsorbate Carbon Dioxide: InChIKey CURLTUGMZLYLDI-UHFFFAOYSA-N
Kind: experiment
Temperature: 313 K
Tabular data in the source: 0
pressure (bar)	uptake (mmol/g)
0	0.020439
0.010382	0.728993
0.021505	1.16503
0.029663	1.42392
0.040044	1.64194
0.051168	1.7782
0.059696	1.91446
0.070449	1.99621
0.080089	2.10522
0.089729	2.18698
0.09974	2.2483
0.149796	2.48675
0.200222	2.66389
0.250649	2.81378
0.299963	2.9296
0.349648	3.03861
0.399703	3.1408
0.450501	3.22256
0.500185	3.29069
0.550612	3.35201
0.601038	3.42695
0.650352	3.49508
0.700779	3.54277
0.750463	3.59046
0.800519	3.63134
0.850575	3.67903
0.90026	3.74035
0.950686	3.7676
1	3.80848
