Adsorption isotherm of Nitrogen on Zeolite 13X
DOI: 10.1021/acs.iecr.6b04270
Article source: Figure 3
Adsorbate Nitrogen: InChIKey IJGRMHOSHXDMSA-UHFFFAOYSA-N
Kind: experiment
Temperature: 313 K
Tabular data in the source: 0
pressure (bar)	uptake (mmol/g)
0.00964	0.006813
0.020022	0.006813
0.030404	0.006813
0.040044	0.006813
0.051168	0.020439
0.060067	0.034065
0.070078	0.020439
0.080831	0.020439
0.090842	0.020439
0.100853	0.020439
0.150167	0.020439
0.200222	0.047691
0.250278	0.040878
0.300334	0.061317
0.350389	0.081756
0.400445	0.081756
0.450501	0.095382
0.500556	0.102195
0.550241	0.109008
0.600667	0.115821
0.650352	0.129447
0.700408	0.143073
0.750463	0.149886
0.800519	0.156699
0.850575	0.177139
0.90063	0.177139
0.950315	0.190765
1	0.197578
