Adsorption isotherm of Nitrogen on CuBTC
DOI: 10.1021/Ef800938e
Adsorbate Nitrogen: InChIKey IJGRMHOSHXDMSA-UHFFFAOYSA-N
Temperature: 77 K
Tabular data in the source: 0
pressure (bar)	uptake (ml/g)
-0.00186966	1.28239
0.00071111	371.307
0.00150212	116.918
0.00240898	425.271
0.0508443	448.459
0.151542	464.006
0.229884	469.246
0.358595	475.835
0.537679	482.49
0.718644	484.007
0.879055	495.776
0.97601	515.173
