Adsorption isotherm of Nitrogen on CuBTC
DOI: 10.1021/Ef800938e
Adsorbate Nitrogen: InChIKey IJGRMHOSHXDMSA-UHFFFAOYSA-N
Temperature: 298 K
Tabular data in the source: 0
pressure (bar)	uptake (mmol/g)
0.946565	0.157549
2.0458	0.367615
3.0229	0.630197
3.87786	0.787746
5.12977	0.971554
6.19847	1.15536
8.0916	1.49672
9.40458	1.70678
11.3282	1.99562
13.4656	2.17943
15.3893	2.36324
