Adsorption isotherm of Carbon Dioxide on CuBTC
DOI: 10.1021/Ef800938e
Adsorbate Carbon Dioxide: InChIKey CURLTUGMZLYLDI-UHFFFAOYSA-N
Temperature: 298 K
Tabular data in the source: 0
pressure (bar)	uptake (mmol/g)
0.152672	0.761488
0.519084	2.67834
1.03817	4.75274
1.52672	6.14442
3.05344	9.00656
4	9.87309
5.12977	10.5295
7.20611	11.4486
9.25191	12
11.2672	12.3676
13.313	12.5514
15.4504	12.7877
