Adsorption isotherm of Methane on CuBTC
DOI: 10.1021/Ef800938e
Adsorbate Methane: InChIKey VNWKTOKETHGBQD-UHFFFAOYSA-N
Temperature: 323 K
Tabular data in the source: 0
pressure (bar)	uptake (mmol/g)
1.04373	0.510638
3.00052	1.39007
4.04278	1.3617
5.93404	2.09929
10.2679	2.69504
11.2782	2.89362
12.2884	3.03546
13.2332	3.12057
14.4387	3.23404
