Adsorption isotherm of Carbon Dioxide on CuBTC
DOI: 10.1021/Ef800938e
Adsorbate Carbon Dioxide: InChIKey CURLTUGMZLYLDI-UHFFFAOYSA-N
Temperature: 298 K
Tabular data in the source: 0
pressure (bar)	uptake (mmol/g)
0.519931	2.73331
1.03986	4.62226
1.54939	5.99958
2.05893	7.14662
3.10919	8.5705
4.11785	9.50859
5.12652	10.1396
