Adsorption isotherm of Carbon Dioxide on CuBTC
DOI: 10.1021/Ef800938e
Adsorbate Carbon Dioxide: InChIKey CURLTUGMZLYLDI-UHFFFAOYSA-N
Temperature: 298 K
Tabular data in the source: 0
pressure (bar)	uptake (mmol/g)
0.540728	2.50285
1.05026	3.72665
1.55979	4.69459
2.06932	5.45783
3.10919	6.44683
4.08666	7.12932
5.13692	7.63209
