Adsorption isotherm of Carbon Dioxide on CuBTC
DOI: 10.1021/Ef800938e
Adsorbate Carbon Dioxide: InChIKey CURLTUGMZLYLDI-UHFFFAOYSA-N
Temperature: 323 K
Tabular data in the source: 0
pressure (bar)	uptake (mmol/g)
0.491603	1.10638
1.57191	3.0922
4.1546	6.55319
5.16745	7.68794
6.21018	7.82979
8.29787	8.93617
10.2868	9.67376
13.2531	10.4397
15.4365	10.8085
