Adsorption isotherm of Water on CuBTC
DOI: 10.1021/Ef800938e
Adsorbate Water: InChIKey XLYOFNOQVPJJNP-UHFFFAOYSA-N
Temperature: 298 K
Tabular data in the source: 0
pressure (bar)	uptake (wt%)
0.072282	4.01314
0.10256	15.4732
0.13297	24.0242
0.201291	35.4911
0.300195	51.6909
0.405176	53.71
0.501116	55.3638
0.600744	55.5638
0.707537	57.5832
0.794402	59.599
0.902628	69.9823
