Adsorption isotherm of Oxygen on CuBTC
DOI: 10.1021/Ef800938e
Adsorbate Oxygen: InChIKey MYMOFIZGZYHOMD-UHFFFAOYSA-N
Temperature: 298 K
Tabular data in the source: 0
pressure (bar)	uptake (mmol/g)
3.3e-05	0.00544959
0.103443	0.0681199
0.267624	0.158038
0.504715	0.277929
1.02715	0.479564
1.53127	0.659401
2.0415	0.847411
