Adsorption isotherm of Carbon Dioxide on CuBTC
DOI: 10.1021/Ef800938e
Adsorbate Carbon Dioxide: InChIKey CURLTUGMZLYLDI-UHFFFAOYSA-N
Temperature: 298 K
Tabular data in the source: 0
pressure (bar)	uptake (mmol/g)
0.0207972	0.178927
0.124783	0.817699
0.530329	2.34942
1.02946	3.75241
1.55979	4.95045
2.02773	5.71405
3.07799	6.75413
4.09705	7.43627
5.13692	7.91354
