Adsorption isotherm of Nitrogen on CuBTC
DOI: 10.1021/Ef800938e
Adsorbate Nitrogen: InChIKey IJGRMHOSHXDMSA-UHFFFAOYSA-N
Temperature: 298 K
Tabular data in the source: 0
pressure (bar)	uptake (mmol/g)
1.04319	0.312057
4.10678	0.93617
6.06194	1.21986
8.2127	1.56028
10.2007	1.92908
11.1781	2.01418
12.3184	2.09929
13.2633	2.21277
15.3813	2.46809
