Adsorption isotherm of Nitrogen on CuBTC
DOI: 10.1021/Ef800938e
Adsorbate Nitrogen: InChIKey IJGRMHOSHXDMSA-UHFFFAOYSA-N
Temperature: 323 K
Tabular data in the source: 0
pressure (bar)	uptake (mmol/g)
3.16115	0.567376
6.02845	0.879433
8.17898	1.13475
9.2867	1.21986
10.2316	1.33333
11.372	1.44681
12.3825	1.7305
14.3369	1.7305
15.4122	1.84397
