Adsorption isotherm of Carbon Dioxide on CuBTC
DOI: 10.1021/Ef800938e
Adsorbate Carbon Dioxide: InChIKey CURLTUGMZLYLDI-UHFFFAOYSA-N
Temperature: 378 K
Tabular data in the source: 0
pressure (bar)	uptake (mmol/g)
3.03471	1.98582
4.07821	2.41135
5.05702	3.00709
6.06772	3.34752
8.12253	4.34043
10.2102	5.44681
12.3609	5.75887
13.2096	6.41135
15.3952	7.60284
