Adsorption isotherm of Carbon Dioxide on CuBTC
DOI: 10.1021/Ef800938e
Adsorbate Carbon Dioxide: InChIKey CURLTUGMZLYLDI-UHFFFAOYSA-N
Temperature: 298 K
Tabular data in the source: 0
pressure (bar)	uptake (mmol/g)
0.540728	2.70754
1.05026	4.13603
1.5286	5.3601
2.05893	6.32786
3.11958	7.4702
4.08666	8.33188
5.15771	8.93682
