Adsorption isotherm of Water on CuBTC
DOI: 10.1021/Ef800938e
Adsorbate Water: InChIKey XLYOFNOQVPJJNP-UHFFFAOYSA-N
Temperature: 305 K
Tabular data in the source: 0
pressure (bar)	uptake (wt%)
0.0433214	3.46242
0.0719691	10.9222
0.150921	27.6638
0.203177	33.8551
0.297157	38.7813
0.507201	41.0013
0.608534	43.5652
0.696939	51.5813
0.805519	54.1465
0.901096	63.8002
0.924416	68.8953
