Adsorption isotherm of Methane on CuBTC
DOI: 10.1021/Ef800938e
Adsorbate Methane: InChIKey VNWKTOKETHGBQD-UHFFFAOYSA-N
Temperature: 298 K
Tabular data in the source: 0
pressure (bar)	uptake (mmol/g)
0.979355	0.794326
3.06651	1.70213
5.1532	2.43972
7.20724	3.14894
9.26059	3.60284
11.3466	4.08511
13.3995	4.36879
14.4425	4.62411
15.4852	4.76596
