Adsorption isotherm of Carbon Dioxide on CuBTC
DOI: 10.1021/Ef800938e
Adsorbate Carbon Dioxide: InChIKey CURLTUGMZLYLDI-UHFFFAOYSA-N
Temperature: 298 K
Tabular data in the source: 0
pressure (bar)	uptake (mmol/g)
0.165177	0.851064
0.46365	2.80851
1.44993	6.15603
3.08615	8.93617
5.20811	10.6667
7.23012	11.5745
10.2939	12.2553
13.3892	12.5957
15.442	12.8227
