Adsorption isotherm of Nitrogen on CuBTC
DOI: 10.1021/Ef800938e
Adsorbate Nitrogen: InChIKey IJGRMHOSHXDMSA-UHFFFAOYSA-N
Temperature: 348 K
Tabular data in the source: 0
pressure (bar)	uptake (mmol/g)
2.9979	0.425532
6.0929	0.624113
8.1454	0.765957
9.15556	0.907801
10.2958	0.964539
11.3384	1.04965
12.2834	1.19149
14.3357	1.2766
15.4434	1.33333
