Adsorption isotherm of Methane on CuBTC
DOI: 10.1021/Ef800938e
Adsorbate Methane: InChIKey VNWKTOKETHGBQD-UHFFFAOYSA-N
Temperature: 298 K
Tabular data in the source: 0
pressure (bar)	uptake (mmol/g)
0.519084	0.525164
1.43511	1.15536
1.98473	1.4442
3.17557	1.81182
4.0916	2.23195
5.22137	2.59956
7.08397	3.22976
9.34351	3.75492
11.2977	4.12254
13.4351	4.49015
15.4809	4.72648
