Adsorption isotherm of Nitrogen on CuBTC
DOI: 10.1021/Ef800938e
Adsorbate Nitrogen: InChIKey IJGRMHOSHXDMSA-UHFFFAOYSA-N
Temperature: 378 K
Tabular data in the source: 0
pressure (bar)	uptake (mmol/g)
0.293545	0.141844
1.04235	1.78e-15
1.92236	0.198582
4.07251	0.312057
6.09236	0.425532
8.11214	0.510638
10.0995	0.652482
12.2169	0.70922
13.2917	0.652482
14.3021	0.879433
15.4423	0.93617
