Adsorption isotherm of Carbon Dioxide on CuBTC
DOI: 10.1021/Ef800938e
Adsorbate Carbon Dioxide: InChIKey CURLTUGMZLYLDI-UHFFFAOYSA-N
Temperature: 348 K
Tabular data in the source: 0
pressure (bar)	uptake (mmol/g)
1.01262	1.04965
3.00521	3.12057
5.09399	4.62411
7.14857	5.53191
10.28	7.14894
11.3225	7.20567
13.3108	7.68794
14.3223	8.34043
15.463	8.56738
