Adsorption isotherm of Nitrogen on {[Cd(L)(H2O)]*3H2O}
DOI: 10.1039/C2dt31844j
Adsorbate Nitrogen: InChIKey IJGRMHOSHXDMSA-UHFFFAOYSA-N
Temperature: 77 K
Tabular data in the source: 0
pressure (bar)	uptake (cm3(STP)/g)
0.00400996	2.5906
0.00400996	8.27127
0.00400996	18.5402
0.0105646	25.7503
0.0193041	33.3973
0.0477074	39.078
0.0651864	43.6662
0.106699	49.3469
0.194094	61.1452
0.279304	63.1116
0.368884	64.204
0.454094	65.078
0.541489	65.7335
0.635439	67.0444
0.725018	68.1368
0.810228	69.0108
0.897623	69.8847
0.978464	71.8511
0.993758	74.036
