Adsorption isotherm of Carbon Dioxide on {[Cd(L)(H2O)]*3H2O}
DOI: 10.1039/C2dt31844j
Adsorbate Carbon Dioxide: InChIKey CURLTUGMZLYLDI-UHFFFAOYSA-N
Temperature: 273 K
Tabular data in the source: 0
pressure (bar)	uptake (cm3(STP)/g)
0.106699	1.26098
0.198464	6.24249
0.301153	10.0442
0.397287	12.4038
0.502161	13.7585
0.600481	14.8509
0.70317	15.8996
0.801489	16.6862
0.897623	17.429
0.991573	18.1282
