Adsorption isotherm of Nitrogen on MSNs-HPZ
DOI: 10.1039/c5nj02974k
Article source: Figure 5
Adsorbate Nitrogen: InChIKey IJGRMHOSHXDMSA-UHFFFAOYSA-N
Kind: experiment
Temperature: 77 K
Tabular data in the source: 0
pressure (bar)	uptake (cm3(STP)/g)
0.000517	6.489
0.000811	0.84
0.001571	14.714
0.00303	26.076
0.003303	25.289
0.007052	38.395
0.009058	41.242
0.01074	45.535
0.011085	45.942
0.019769	54.032
0.024764	57.376
0.032079	59.907
0.048727	68.314
0.054695	67.862
0.087585	75.185
0.101882	78.937
0.109846	80.203
0.124457	81.605
0.152677	85.267
0.162637	86.939
0.186205	88.929
0.200482	90.873
0.219733	92.23
0.230028	93.089
0.252259	94.084
0.26918	94.853
0.287429	95.713
0.309335	96.663
0.353462	98.157
0.354789	98.112
0.402564	98.973
0.408198	99.244
0.452517	99.794
0.457513	100.117
0.505439	100.406
0.509655	100.45
0.532554	100.695
0.558098	101.162
0.605761	101.308
0.610757	101.416
0.655522	101.741
0.662108	101.921
0.707917	102.139
0.712659	102.282
0.731354	102.391
0.763474	102.572
0.766372	102.644
0.790335	103.327
0.811137	103.256
0.84194	103.616
0.861161	103.904
0.89013	104.444
0.909878	105.019
0.939121	106.778
0.944369	105.343
1.00183	114.206
