Adsorption isotherm of Nitrogen on MSNs
DOI: 10.1039/c5nj02974k
Article source: Figure 5
Adsorbate Nitrogen: InChIKey IJGRMHOSHXDMSA-UHFFFAOYSA-N
Kind: experiment
Temperature: 77 K
Tabular data in the source: 0
pressure (bar)	uptake (cm3(STP)/g)
0.001236	50.126
0.001641	66.55
0.001844	32.086
0.002047	41.157
0.002452	102.629
0.013689	115.957
0.023102	125.918
0.031887	136.015
0.040277	143.15
0.047025	147.053
0.070532	161.592
0.08567	168.457
0.09712	174.111
0.107749	177.88
0.116544	180.706
0.12922	185.956
0.145786	194.706
0.151511	195.918
0.169709	206.417
0.17585	207.629
0.187502	214.763
0.20038	220.821
0.204474	221.629
0.210199	224.052
0.215316	226.475
0.227677	232.769
0.239532	240.231
0.24546	241.249
0.261175	252.782
0.265553	254.647
0.273537	261.093
0.283325	270.93
0.285129	271.439
0.291309	278.732
0.298787	284.159
0.305221	294.506
0.311402	302.986
0.318363	312.824
0.321707	319.099
0.32351	320.965
0.328921	329.276
0.343603	351.834
0.349267	362.52
0.352621	367.608
0.361376	376.597
0.373747	385.587
0.388429	397.629
0.399768	403.734
0.404398	405.77
0.407752	409.162
0.410589	407.465
0.418057	412.554
0.433772	418.829
0.463146	423.068
0.465588	431.631
0.496462	447.516
0.502602	428.803
0.51692	448.167
0.519777	448.457
0.589722	439.165
0.597483	442.59
0.613847	456.684
0.616502	457.069
0.696062	448.449
0.699122	449.002
0.716915	465.664
0.718344	465.95
0.794834	459.35
0.807307	464.717
0.817531	461.637
0.897506	472.512
0.899452	473.333
0.922017	476.785
0.943923	484.533
0.956417	485.38
0.975739	491.994
0.978323	490.298
1.00254	497.251
