Adsorption isotherm of Acid Blue 45 on CNT-NH2
DOI: 10.1016/j.cej.2016.10.058
Article source: Figure 11
Adsorbate Acid Blue 45: InChIKey WSALIDVQXCHFEG-UHFFFAOYSA-L
Kind: experiment
Temperature: 298 K
Tabular data in the source: 0
pressure (bar)	uptake (mg/g)
1.01325	1.53
1.01325	247.44
1.01325	503.57
1.01325	602.77
1.01325	660.44
