Adsorption isotherm of Naphthol Blue Black on CNT-NH2
DOI: 10.1016/j.cej.2016.10.058
Article source: Figure 11
Adsorbate Naphthol Blue Black: InChIKey InChI=1S/C22H16N6O9S2.2Na/c23-19-18-12(11-17(39(35
Kind: experiment
Temperature: 298 K
Tabular data in the source: 0
pressure (bar)	uptake (mg/g)
1.01325	1.53
1.01325	224.77
1.01325	424.24
1.01325	539.72
1.01325	585.52
