Adsorption isotherm of Naphthol Blue Black, Acid Blue 45 on CNT-NH2
DOI: 10.1016/j.cej.2016.10.058
Article source: Figure 11
Adsorbate Naphthol Blue Black: InChIKey AOMZHDJXSYHPKS-UHFFFAOYSA-L
Adsorbate Acid Blue 45: InChIKey WSALIDVQXCHFEG-UHFFFAOYSA-L
Kind: experiment
Temperature: 298 K
Tabular data in the source: 0
pressure (bar)	Naphthol Blue Black fraction	Naphthol Blue Black uptake (mg/g)	Acid Blue 45 fraction	Acid Blue 45 uptake (mg/g)	total uptake (mg/g)
1.01325	0.082	1.53	0	0	
1.01325	2.751	204.57	0.082	1.53	
1.01325	7.481	394.71	7.592	480.69	
1.01325	20.953	546.85	20.944	578.78	
1.01325	40.153	544.43	39.846	636.1	
