Adsorption isotherm of Methane on Chlorite, 4nm
DOI: 10.1007/s12182-016-0142-1
Article source: Figure 16
Adsorbate Methane: InChIKey VNWKTOKETHGBQD-UHFFFAOYSA-N
Kind: experiment
Isotherm type: excess
Temperature: 333 K
Tabular data in the source: 0
pressure (bar)	uptake (mmol/m2)
19.56	0.000748
40.49	0.001374
61.08	0.001886
80.69	0.002132
100.29	0.002445
120.57	0.002553
140.84	0.002729
159.79	0.002704
180.73	0.002599
200.01	0.00252
239.9	0.002241
280.12	0.001957
320.34	0.001674
360.9	0.001453
400.45	0.001257
