Adsorption isotherm of Methane on Chlorite, 4nm
DOI: 10.1007/s12182-016-0142-1
Article source: Figure 13
Adsorbate Methane: InChIKey VNWKTOKETHGBQD-UHFFFAOYSA-N
Kind: experiment
Isotherm type: excess
Temperature: 333 K
Tabular data in the source: 0
pressure (bar)	uptake (mmol/m2)
20.34	0.000489
40.3	0.00089
60.52	0.001122
79.83	0.001457
99.93	0.001582
120.02	0.001784
139.85	0.00201
159.68	0.002046
179.78	0.002086
200.39	0.002007
239.55	0.001737
279.99	0.001586
320.18	0.001518
360.11	0.001288
400.56	0.001223
