Adsorption isotherm of Methane on Chlorite, 4nm
DOI: 10.1007/s12182-016-0142-1
Article source: Figure 11
Adsorbate Methane: InChIKey VNWKTOKETHGBQD-UHFFFAOYSA-N
Kind: experiment
Isotherm type: excess
Temperature: 333 K
Tabular data in the source: 0
pressure (bar)	uptake (mmol/m2)
19.67	0.000524
39.59	0.001038
60.06	0.001355
79.47	0.001609
99.94	0.001695
119.88	0.001803
139.83	0.001718
159.72	0.001697
179.86	0.001579
199.88	0.001532
240.12	0.001153
279.76	0.000897
320.31	0.000869
360.21	0.000593
400.12	0.000428
