Adsorption isotherm of Methane on Chlorite, 4nm
DOI: 10.1007/s12182-016-0142-1
Article source: Figure 11
Adsorbate Methane: InChIKey VNWKTOKETHGBQD-UHFFFAOYSA-N
Kind: experiment
Isotherm type: excess
Temperature: 333 K
Tabular data in the source: 0
pressure (bar)	uptake (mmol/m2)
0.008224	0.000744
0.014684	0.001366
0.019894	0.001812
0.024466	0.002224
0.027254	0.0025
0.028694	0.00255
0.029454	0.002735
0.030162	0.002785
0.029888	0.002702
0.029103	0.002627
0.027692	0.002436
0.025674	0.002233
0.024258	0.001934
0.021918	0.001849
0.019249	0.00169
