Adsorption isotherm of Methane on Chlorite, 4nm
DOI: 10.1007/s12182-016-0142-1
Article source: Figure 11
Adsorbate Methane: InChIKey VNWKTOKETHGBQD-UHFFFAOYSA-N
Kind: experiment
Isotherm type: excess
Temperature: 333 K
Tabular data in the source: 0
pressure (bar)	uptake (mmol/m2)
18.79	0.000632
39.43	0.001231
59.58	0.001686
80.19	0.001974
99.76	0.002178
119.76	0.002336
139.75	0.002398
159.55	0.002302
179.96	0.002265
199.97	0.002056
240.18	0.001936
280.19	0.001703
319.98	0.001439
360.4	0.001282
400.63	0.001069
