Adsorption isotherm of Methane on Chlorite, 4nm
DOI: 10.1007/s12182-016-0142-1
Article source: Figure 16
Adsorbate Methane: InChIKey VNWKTOKETHGBQD-UHFFFAOYSA-N
Kind: experiment
Isotherm type: excess
Temperature: 333 K
Tabular data in the source: 0
pressure (bar)	uptake (mmol/m2)
19.57	0.000352
41.5	0.000673
60.1	0.001094
80.7	0.001432
99.98	0.001565
120.92	0.001515
139.87	0.001465
160.47	0.00142
180.42	0.001265
200.36	0.001182
240.25	0.001065
280.47	0.000848
320.36	0.000665
360.58	0.000577
399.47	0.00049
