Adsorption isotherm of Methane on Chlorite, 4nm
DOI: 10.1007/s12182-016-0142-1
Article source: Figure 16
Adsorbate Methane: InChIKey VNWKTOKETHGBQD-UHFFFAOYSA-N
Kind: experiment
Isotherm type: excess
Temperature: 333 K
Tabular data in the source: 0
pressure (bar)	uptake (mmol/m2)
19.9	0.000173
40.51	0.000311
60.78	0.000469
80.72	0.000615
100.66	0.00064
120.93	0.000719
140.55	0.000644
159.16	0.00064
180.43	0.000607
200.71	0.000552
240.26	0.000461
279.82	0.000394
320.37	0.000331
360.59	0.000286
400.47	0.000236
