Adsorption isotherm of Methane on Chlorite, 4nm
DOI: 10.1007/s12182-016-0142-1
Article source: Figure 13
Adsorbate Methane: InChIKey VNWKTOKETHGBQD-UHFFFAOYSA-N
Kind: experiment
Isotherm type: excess
Temperature: 333 K
Tabular data in the source: 0
pressure (bar)	uptake (mmol/m2)
19.23	0.000315
39.67	0.000637
59.79	0.000818
79.42	0.001042
99.71	0.001106
120.5	0.001271
140.13	0.001294
160.17	0.001382
180.41	0.001402
200.04	0.001308
240.12	0.001239
280.6	0.001139
320.68	0.001
360.14	0.000865
400.83	0.000774
