Adsorption isotherm of Methane on Chlorite, 4nm
DOI: 10.1007/s12182-016-0142-1
Article source: Figure 16
Adsorbate Methane: InChIKey VNWKTOKETHGBQD-UHFFFAOYSA-N
Kind: experiment
Isotherm type: excess
Temperature: 333 K
Tabular data in the source: 0
pressure (bar)	uptake (mmol/m2)
19.56	0.00084
40.48	0.001515
59.75	0.002057
80.35	0.00252
100.95	0.002808
120.56	0.002941
140.17	0.003025
160.78	0.003087
180.05	0.003062
199.67	0.002987
240.88	0.002833
280.11	0.002641
319.66	0.002491
360.22	0.002245
401.11	0.001974
