Adsorption isotherm of Methane on Chlorite, 4nm
DOI: 10.1007/s12182-016-0142-1
Article source: Figure 13
Adsorbate Methane: InChIKey VNWKTOKETHGBQD-UHFFFAOYSA-N
Kind: experiment
Isotherm type: excess
Temperature: 333 K
Tabular data in the source: 0
pressure (bar)	uptake (mmol/m2)
19.82	0.00081
40.42	0.001472
60.51	0.001993
80.05	0.002446
99.68	0.002722
119.8	0.002863
140.25	0.002942
159.88	0.003026
180.01	0.002983
200.46	0.00291
240.05	0.002765
280.3	0.002575
320.55	0.002421
360.07	0.00218
400.65	0.001904
