Adsorption isotherm of Methane on Chlorite, 4nm
DOI: 10.1007/s12182-016-0142-1
Article source: Figure 11
Adsorbate Methane: InChIKey VNWKTOKETHGBQD-UHFFFAOYSA-N
Kind: experiment
Isotherm type: excess
Temperature: 333 K
Tabular data in the source: 0
pressure (bar)	uptake (mmol/m2)
18.88	0.000822
39.58	0.001468
59.38	0.001989
79.55	0.002447
99.33	0.002725
120.05	0.002869
139.94	0.002945
159.73	0.003016
179.83	0.002989
199.83	0.00291
239.52	0.002769
280.35	0.002567
320.12	0.002426
359.63	0.002192
400.59	0.001925
