Adsorption isotherm of Methane on Chlorite, 4nm
DOI: 10.1007/s12182-016-0142-1
Article source: Figure 13
Adsorbate Methane: InChIKey VNWKTOKETHGBQD-UHFFFAOYSA-N
Kind: experiment
Isotherm type: excess
Temperature: 333 K
Tabular data in the source: 0
pressure (bar)	uptake (mmol/m2)
20.09	0.000212
40.25	0.000254
60.08	0.000455
79.85	0.000557
99.75	0.000623
119.84	0.000658
139.16	0.000685
160.35	0.000706
180.38	0.000663
199.89	0.00067
239.93	0.000623
279.61	0.000575
320.75	0.000487
361.56	0.000437
400.9	0.000387
