Adsorption isotherm of Methane on Chlorite, 4nm
DOI: 10.1007/s12182-016-0142-1
Article source: Figure 16
Adsorbate Methane: InChIKey VNWKTOKETHGBQD-UHFFFAOYSA-N
Kind: experiment
Isotherm type: excess
Temperature: 333 K
Tabular data in the source: 0
pressure (bar)	uptake (mmol/m2)
19.89	0.000565
40.82	0.001094
60.43	0.001507
80.7	0.001824
100.97	0.002057
120.91	0.002128
139.52	0.002237
159.13	0.002174
180.41	0.001995
200.35	0.001907
240.57	0.001553
280.13	0.001324
319.69	0.001107
359.58	0.000957
400.46	0.00079
