Adsorption isotherm of Methane on Chlorite, 4nm
DOI: 10.1007/s12182-016-0142-1
Article source: Figure 13
Adsorbate Methane: InChIKey VNWKTOKETHGBQD-UHFFFAOYSA-N
Kind: experiment
Isotherm type: excess
Temperature: 333 K
Tabular data in the source: 0
pressure (bar)	uptake (mmol/m2)
19.83	0.000662
40.42	0.00121
60.38	0.001687
79.57	0.00191
99.66	0.002251
119.88	0.002356
140.23	0.002494
159.68	0.002571
179.64	0.002489
199.74	0.002426
239.8	0.002273
280.11	0.002129
319.92	0.001973
359.98	0.001787
400.81	0.001656
