Adsorption isotherm of Hydrogen on Alpha-Mg Formate
DOI: 10.1021/Ic102057p
Adsorbate Hydrogen: InChIKey UFHFLCQGNIYNRP-UHFFFAOYSA-N
Temperature: 77 K
Tabular data in the source: 0
pressure (bar)	uptake (cm3(STP)/g)
0.0535474	9.83819
0.104313	18.123
0.155171	23.8188
0.203238	28.2201
0.254187	31.3269
0.350422	37.2816
0.401418	39.0939
0.452404	41.165
0.500553	43.2362
0.551558	44.7896
0.650749	47.3786
0.747112	49.7087
0.795298	50.7443
0.843466	52.2977
0.894498	53.0744
0.988053	54.6278
