Adsorption isotherm of Hydrogen on C14H12Mg6NO24
DOI: 10.1021/Ic102057p
Adsorbate Hydrogen: InChIKey UFHFLCQGNIYNRP-UHFFFAOYSA-N
Temperature: 77 K
Tabular data in the source: 0
pressure (bar)	uptake (cm3(STP)/g)
0.00675469	74.1688
0.00693627	84.7648
0.0291796	102.767
0.0457939	112.295
0.0981246	126.044
0.153106	134.493
0.199763	137.119
0.249179	140.803
0.35069	144.462
0.400089	147.086
0.44945	147.591
0.501563	148.625
0.553676	149.659
0.649658	150.671
0.751124	151.68
0.800513	153.775
0.852608	153.749
0.901961	153.724
0.989717	154.74
