Adsorption isotherm of Hydrogen on C14H12Mg6NO24
DOI: 10.1021/Ic102057p
Adsorbate Hydrogen: InChIKey UFHFLCQGNIYNRP-UHFFFAOYSA-N
Temperature: 77 K
Tabular data in the source: 0
pressure (bar)	uptake (wt%)
0.0126472	0.0290111
0.0379415	0.0918876
0.0548045	0.111152
0.092746	0.193331
0.109609	0.217449
0.14755	0.285065
0.164413	0.3286
0.202355	0.381653
0.227649	0.425112
0.252944	0.473426
0.311964	0.555413
0.333042	0.594056
0.349905	0.61332
0.387847	0.651809
0.43422	0.719348
0.459514	0.733681
0.531182	0.786427
0.543829	0.796021
0.58177	0.815093
0.61128	0.839096
0.661869	0.862907
0.687164	0.87724
0.729321	0.901128
0.754615	0.910607
0.784125	0.924901
0.80942	0.939234
0.834714	0.943858
0.876871	0.962892
0.910597	0.972294
0.944323	0.981695
0.969617	0.981465
0.994912	0.990944
