Adsorption isotherm of Hydrogen on C14H12Mg6NO24
DOI: 10.1021/Ic102057p
Adsorbate Hydrogen: InChIKey UFHFLCQGNIYNRP-UHFFFAOYSA-N
Temperature: 77 K
Tabular data in the source: 0
pressure (bar)	uptake (cm3(STP)/g)
0.00275998	1.05823
0.0357981	8.98884
0.0468108	11.6324
0.0853143	18.5007
0.10182	21.6713
0.140323	28.5396
0.165063	32.2359
0.200807	38.0459
0.222823	42.8032
0.253047	46.4968
0.275063	51.2541
0.308029	54.9463
0.332796	60.232
0.352025	62.3417
0.384981	65.5041
0.412472	69.7289
0.437194	72.3656
0.459156	73.9441
0.500338	77.1025
0.52505	79.2094
0.541519	80.2608
0.5772	82.3623
0.607378	83.4069
0.62934	84.9854
0.659527	86.5598
0.686981	88.6654
0.719902	89.7086
0.747347	91.2844
0.772051	92.8615
0.799487	93.9075
0.82144	94.9562
0.851609	95.471
0.879045	96.517
0.900989	97.0359
0.928425	98.0819
0.958595	98.5967
0.98328	99.1142
1.00249	100.164
