Adsorption isotherm of Hydrogen on Alpha-Mg Formate
DOI: 10.1021/Ic102057p
Adsorbate Hydrogen: InChIKey UFHFLCQGNIYNRP-UHFFFAOYSA-N
Temperature: 77 K
Tabular data in the source: 0
pressure (bar)	uptake (cm3(STP)/g)
0.00845486	1.5534
0.0251167	11.6505
0.036243	17.8641
0.0615984	22.7832
0.0954178	28.9968
0.14342	35.2104
0.194306	40.1294
0.267884	45.0485
0.35	49.1909
0.434962	53.0744
0.539743	57.9935
0.641752	61.1003
0.746607	63.9482
0.831587	67.3139
0.922296	69.1262
1.00168	70.4207
