Adsorption isotherm of Nitrogen on C14H12Mg6NO24
DOI: 10.1021/Ic102057p
Adsorbate Nitrogen: InChIKey IJGRMHOSHXDMSA-UHFFFAOYSA-N
Temperature: 77 K
Tabular data in the source: 0
pressure (bar)	uptake (cm3(STP)/g)
4.44e-16	13.2075
0.011082	20.7547
0.022164	27.5472
0.0332459	33.5849
0.0554099	34.717
0.0775738	35.8491
0.0997378	36.9811
0.12929	37.7358
0.16623	38.4906
0.199476	38.4906
0.22164	38.8679
0.251191	38.8679
0.284437	39.6226
0.325071	40.3774
0.395257	40.3774
0.461749	40
0.498689	41.1321
0.509771	41.5094
0.594733	42.6415
0.657531	44.1509
0.687083	44.9057
0.716635	46.0377
0.78682	47.1698
0.84223	49.8113
0.871782	52.4528
0.886558	54.3396
0.908722	57.7358
0.93458	62.2642
0.964132	74.3396
