Adsorption isotherm of Carbon Dioxide on C14H12Mg6NO24
DOI: 10.1021/Ic102057p
Adsorbate Carbon Dioxide: InChIKey CURLTUGMZLYLDI-UHFFFAOYSA-N
Temperature: 298 K
Tabular data in the source: 0
pressure (bar)	uptake (mmol/g)
0.0203042	0.0628272
0.0283488	0.125654
0.0770018	0.314136
0.0891116	0.387435
0.105329	0.450262
0.137743	0.586387
0.158005	0.670157
0.186439	0.753927
0.235199	0.890052
0.247287	0.973822
0.275786	1.02618
0.29609	1.08901
0.430303	1.40314
0.458802	1.4555
0.507647	1.54974
0.519864	1.57068
0.568752	1.64398
0.621706	1.72775
0.674702	1.79058
0.699135	1.83246
0.748067	1.88482
0.797019	1.9267
0.813301	1.95812
0.84595	1.97906
0.870426	2
0.915271	2.05236
0.96018	2.0733
1.01324	2.10471
