Adsorption isotherm of Nitrogen on C24H21In3N4O22
DOI: 10.1002/anie.200604306
Adsorbate Nitrogen: InChIKey IJGRMHOSHXDMSA-UHFFFAOYSA-N
Temperature: 78 K
Tabular data in the source: 0
pressure (bar)	uptake (cm3(STP)/g)
0.00452344	0.00452344
0.0135703	298.133
0.0407109	308.945
0.0768984	319.724
0.108563	323.247
0.149273	324.919
0.203555	328.36
0.257836	329.984
0.30307	329.821
0.352828	331.461
0.402586	331.282
0.456867	332.906
0.506625	332.727
0.560906	337.987
0.615187	335.974
0.664945	337.614
0.71018	339.269
0.750891	339.123
0.809695	338.912
0.85493	338.75
0.913734	340.357
0.963492	345.633
