Adsorption isotherm of Hydrogen on C24H21In3N4O22
DOI: 10.1002/anie.200604306
Adsorbate Hydrogen: InChIKey UFHFLCQGNIYNRP-UHFFFAOYSA-N
Temperature: 87 K
Tabular data in the source: 0
pressure (bar)	uptake (wt%)
0.0147721	0.0534844
0.0344609	0.120372
0.0590882	0.213938
0.088654	0.334181
0.118133	0.401325
0.182095	0.602116
0.300011	0.870693
0.422715	1.07302
0.540414	1.20885
0.604203	1.30344
0.66797	1.38476
0.785648	1.50731
0.908178	1.60344
1.03069	1.6863
1.08954	1.75421
1.20715	1.83694
