Adsorption isotherm of Hydrogen on C24H21In3N4O22
DOI: 10.1002/anie.200604306
Adsorbate Hydrogen: InChIKey UFHFLCQGNIYNRP-UHFFFAOYSA-N
Temperature: 78 K
Tabular data in the source: 0
pressure (bar)	uptake (wt%)
0.00511174	0.132877
0.0298257	0.279543
0.0398109	0.399273
0.0497744	0.505729
0.0596947	0.585635
0.0795135	0.732172
0.0993106	0.865434
0.173344	1.23906
0.301203	1.60081
0.424014	1.86952
0.546652	2.03202
0.605524	2.11321
0.669291	2.19453
0.786991	2.33035
0.904626	2.42636
1.02222	2.49581
1.09086	2.56398
1.20845	2.63343
