Adsorption isotherm of Acid Orange 7, Water on MCA/WS-g-PDMAEMA
DOI: 10.1016/j.jtice.2017.04.010
Article source: Figure 6
Adsorbate Acid Orange 7: InChIKey CQPFMGBJSMSXLP-UHFFFAOYSA-M
Adsorbate Water: InChIKey XLYOFNOQVPJJNP-UHFFFAOYSA-N
Kind: experiment
Temperature: 298 K
Tabular data in the source: 0
pressure (bar)	Acid Orange 7 fraction	Acid Orange 7 uptake (mg/g)	Water fraction	Water uptake (mg/g)	total uptake (mg/g)
1.01325	30.57	57.68			
1.01325	49.57	93			
1.01325	69.32	130.61			
1.01325	100.35	182.96			
1.01325	120.1	217.77			
1.01325	151.52	285.86			
1.01325	201.16	358.8			
1.01325	250	399.74			
1.01325	299.82	466.08			
1.01325	400.43	476.08			
1.01325	500.86	489.64			
