Adsorption isotherm of Methylene blue, Water on MCA/WS-g-PDMAEMA
DOI: 10.1016/j.jtice.2017.04.010
Article source: Figure 6
Adsorbate Methylene blue: InChIKey CXKWCBBOMKCUKX-UHFFFAOYSA-M
Adsorbate Water: InChIKey XLYOFNOQVPJJNP-UHFFFAOYSA-N
Kind: experiment
Temperature: 298 K
Tabular data in the source: 0
pressure (bar)	Methylene blue fraction	Methylene blue uptake (mg/g)	Water fraction	Water uptake (mg/g)	total uptake (mg/g)
1.01325	29.917	45.768			
1.01325	49.654	60.147			
1.01325	69.393	69.426			
1.01325	99.708	80.794			
1.01325	149.292	101.093			
1.01325	199.349	115.48			
1.01325	250.116	114.22			
