Adsorption isotherm of Nitrogen on [Al(OH)(NDC-(NO2)2)]
DOI: 10.1016/j.micromeso.2015.01.030
Article source: Figure 11
Adsorbate Nitrogen: InChIKey IJGRMHOSHXDMSA-UHFFFAOYSA-N
Kind: experiment
Temperature: 77 K
Tabular data in the source: 0
pressure (bar)	uptake (cm3(STP)/g)
0	27.2109
0.001508	53.0612
0.007539	126.531
0.016586	131.973
0.028648	134.694
0.040711	136.054
0.052773	136.054
0.091977	140.136
0.108563	137.415
0.114594	140.136
0.141734	141.497
0.152289	140.136
0.165859	142.857
0.191492	142.857
0.200539	141.497
0.21411	140.136
0.215618	142.857
0.242757	142.857
0.257836	141.497
0.263868	144.218
0.292515	144.218
0.304578	142.857
0.313625	144.218
0.342274	145.578
0.355843	142.857
0.361875	144.218
0.393539	145.578
0.404094	144.218
0.414648	145.578
0.431234	144.218
0.444805	146.939
0.46893	146.939
0.480992	144.218
0.485516	146.939
0.521703	148.299
0.527734	145.578
0.539797	148.299
0.54432	146.939
0.571461	148.299
0.580508	146.939
0.59257	148.299
0.595586	146.939
0.616695	149.66
0.628758	146.939
0.642329	149.66
0.643836	148.299
0.672484	151.02
0.684547	148.299
0.695102	151.02
0.714703	151.02
0.729781	148.299
0.737321	152.381
0.746367	149.66
0.764461	152.381
0.785571	152.381
0.796125	153.741
0.821758	155.102
0.830804	152.381
0.839852	153.741
0.850407	155.102
0.865485	156.463
0.871516	155.102
0.885086	156.463
0.892625	159.184
0.919766	161.905
0.925796	159.184
0.940875	160.544
0.95143	164.626
0.955953	165.986
0.965	168.707
0.975555	170.068
0.980078	179.592
0.987617	179.592
0.990633	194.558
0.995156	210.884
0.996664	197.279
0.99968	212.245
1.00269	223.129
