Adsorption isotherm of Nitrogen on [Al(OH)(BPDC-NH2)]
DOI: 10.1016/j.micromeso.2015.01.030
Article source: Figure 11
Adsorbate Nitrogen: InChIKey IJGRMHOSHXDMSA-UHFFFAOYSA-N
Kind: experiment
Temperature: 77 K
Tabular data in the source: 0
pressure (bar)	uptake (cm3(STP)/g)
0	0
0.001508	315.646
0.003016	376.871
0.004523	404.082
0.009047	423.129
0.012063	432.653
0.024125	451.701
0.03468	459.864
0.045234	465.306
0.057297	469.388
0.081422	474.83
0.094992	478.912
0.11007	478.912
0.120625	482.993
0.135704	482.993
0.14475	485.714
0.159828	485.714
0.168875	487.075
0.185461	487.075
0.196015	489.796
0.209586	489.796
0.220141	492.517
0.236727	492.517
0.245774	495.238
0.259343	493.878
0.268391	495.238
0.284977	493.878
0.297039	496.599
0.31061	495.238
0.319656	497.959
0.333227	496.599
0.346797	499.32
0.363383	496.599
0.370921	499.32
0.389016	499.32
0.396555	500.68
0.413141	500.68
0.423696	502.041
0.438774	500.68
0.449328	503.401
0.464406	502.041
0.473453	506.122
0.490039	502.041
0.497578	508.844
0.515672	503.401
0.524719	511.565
0.539797	504.762
0.547336	511.565
0.566938	504.762
0.572969	511.565
0.591062	506.122
0.600109	512.925
0.615188	507.483
0.624234	512.925
0.64082	508.844
0.649867	514.286
0.667961	510.204
0.6755	514.286
0.693594	511.565
0.701133	515.646
0.717718	511.565
0.72375	515.646
0.743352	512.925
0.75089	517.007
0.768985	512.925
0.776523	517.007
0.794617	515.646
0.808187	518.367
0.82025	515.646
0.830804	519.728
0.839852	517.007
0.857945	519.728
0.863977	518.367
0.877546	519.728
0.885086	518.367
0.907703	522.449
0.91675	521.088
0.934844	522.449
0.948414	525.17
0.958969	526.531
0.971031	527.891
0.981586	529.252
0.989125	529.252
0.993649	530.612
1.0042	538.776
