Adsorption isotherm of Nitrogen on [Al(OH)(BPDC-NO2)]
DOI: 10.1016/j.micromeso.2015.01.030
Article source: Figure 11
Adsorbate Nitrogen: InChIKey IJGRMHOSHXDMSA-UHFFFAOYSA-N
Kind: experiment
Temperature: 77 K
Tabular data in the source: 0
pressure (bar)	uptake (cm3(STP)/g)
0	0
0.001508	303.401
0.003016	282.993
0.004523	334.694
0.006031	359.184
0.009047	365.986
0.01357	375.51
0.021109	383.673
0.031664	390.476
0.043727	394.558
0.057297	400
0.081422	404.082
0.098008	410.884
0.107055	406.803
0.122133	412.245
0.134195	409.524
0.146258	414.966
0.15832	412.245
0.168875	417.687
0.183954	414.966
0.194508	419.048
0.209586	416.327
0.220141	419.048
0.235219	417.687
0.247282	421.769
0.259343	419.048
0.271406	423.129
0.284977	420.408
0.297039	425.85
0.31061	423.129
0.325688	425.85
0.336242	423.129
0.346797	427.211
0.35886	425.85
0.37243	428.571
0.384492	425.85
0.395047	427.211
0.410125	427.211
0.426711	429.932
0.435758	428.571
0.44782	431.293
0.46139	428.571
0.476469	434.014
0.485516	431.293
0.497578	434.014
0.512656	431.293
0.524719	435.374
0.541304	432.653
0.548844	435.374
0.563922	431.293
0.575984	435.374
0.589554	432.653
0.600109	436.735
0.615188	432.653
0.625743	436.735
0.643836	432.653
0.651375	438.095
0.664945	432.653
0.6755	438.095
0.692086	434.014
0.699625	438.095
0.716211	436.735
0.728273	439.456
0.738828	436.735
0.75089	442.177
0.768985	439.456
0.776523	442.177
0.793109	440.816
0.808187	444.898
0.817235	442.177
0.835328	446.259
0.838344	442.177
0.857945	447.619
0.862468	446.259
0.882071	448.98
0.886594	447.619
0.909211	454.422
0.934844	458.503
0.936351	455.782
0.949922	461.224
0.958969	463.946
0.961985	463.946
0.971031	469.388
0.983094	480.272
0.987617	482.993
0.992141	492.517
0.998172	503.401
0.99968	512.925
