Adsorption isotherm of Nitrogen on [Al(OH)(BPDC-SO2)
DOI: 10.1016/j.micromeso.2015.01.030
Article source: Figure 11
Adsorbate Nitrogen: InChIKey IJGRMHOSHXDMSA-UHFFFAOYSA-N
Kind: experiment
Temperature: 77 K
Tabular data in the source: 0
pressure (bar)	uptake (cm3(STP)/g)
0	0
0.001508	278.912
0.003016	312.925
0.004523	327.891
0.009047	344.218
0.01357	348.299
0.021109	356.463
0.03468	364.626
0.051266	370.068
0.058805	372.789
0.078406	379.592
0.099516	406.803
0.104039	385.034
0.123641	410.884
0.128164	387.755
0.147765	413.605
0.155305	391.837
0.171891	416.327
0.180937	395.918
0.197523	419.048
0.20657	398.639
0.220141	421.769
0.230696	400
0.245774	423.129
0.257836	404.082
0.271406	425.85
0.281961	406.803
0.295532	427.211
0.306086	409.524
0.319656	428.571
0.331719	410.884
0.343782	429.932
0.357352	413.605
0.369414	431.293
0.382984	414.966
0.393539	432.653
0.408617	417.687
0.419171	434.014
0.43425	419.048
0.443297	435.374
0.458375	421.769
0.46893	438.095
0.484008	424.49
0.493055	440.816
0.50964	425.85
0.518688	440.816
0.535274	427.211
0.566938	444.898
0.586539	432.653
0.59257	446.259
0.610664	434.014
0.615188	447.619
0.637804	435.374
0.64082	448.98
0.66193	438.095
0.664945	451.701
0.687562	440.816
0.690579	453.061
0.711688	442.177
0.716211	455.782
0.737321	444.898
0.738828	457.143
0.761445	447.619
0.765968	459.864
0.787078	450.34
0.791602	462.585
0.814218	453.061
0.817235	465.306
0.836836	457.143
0.841359	466.667
0.860961	459.864
0.882071	465.306
0.894132	474.83
0.912227	469.388
0.933336	485.714
0.934844	476.19
0.955953	485.714
0.958969	499.32
0.965	493.878
0.971031	503.401
0.981586	522.449
0.986109	525.17
0.987617	529.252
0.995156	556.463
0.996664	572.789
0.99968	576.871
1.00269	609.524
1.0042	623.129
