Adsorption isotherm of Nitrogen on RS-IRMOF-8
DOI: 10.1016/j.micromeso.2011.12.036
Adsorbate Nitrogen: InChIKey IJGRMHOSHXDMSA-UHFFFAOYSA-N
Temperature: 77 K
Tabular data in the source: 0
pressure (bar)	uptake (cm3(STP)/g)
0.00687687	300.444
0.0174166	310.391
0.0292424	316.785
0.0476102	322.469
0.0738316	327.798
0.106593	332.06
0.12756	334.902
0.156382	337.389
0.17734	338.81
0.20485	340.941
0.234974	342.362
0.261168	343.428
0.283433	344.494
0.304389	345.56
0.342367	346.625
0.365937	346.98
0.411775	348.757
0.436652	348.757
0.489037	350.533
0.512607	350.888
0.53618	351.599
0.583325	353.02
0.634393	353.73
0.656654	354.085
0.682847	355.151
0.707729	355.861
0.732611	356.572
0.753565	357.282
0.779758	358.348
0.805957	360.124
0.826917	361.901
0.851813	364.742
0.875407	368.65
0.889821	370.426
0.896388	373.623
0.906882	376.465
0.918684	379.307
0.947524	384.636
0.964562	387.123
