Adsorption isotherm of Hydrogen on C-IRMOF-8
DOI: 10.1016/j.micromeso.2011.12.036
Adsorbate Hydrogen: InChIKey UFHFLCQGNIYNRP-UHFFFAOYSA-N
Temperature: 77 K
Tabular data in the source: 0
pressure (bar)	uptake (wt%)
0.00287658	0.0809
0.0309817	0.411955
0.0866227	0.662296
0.114362	0.728642
0.136572	0.794955
0.161546	0.861284
0.197579	0.927681
0.255782	1.03098
0.29458	1.09739
0.369361	1.19344
0.47181	1.30436
0.541041	1.38567
0.601937	1.43751
0.643449	1.46718
0.737563	1.54864
0.806744	1.59318
0.867619	1.63032
0.914661	1.66002
0.93681	1.68221
0.961703	1.68972
0.997665	1.70464
1.04194	1.73433
1.08898	1.76403
1.11666	1.78625
1.16367	1.7939
