Adsorption isotherm of Nitrogen on C-IRMOF-8
DOI: 10.1016/j.micromeso.2011.12.036
Adsorbate Nitrogen: InChIKey IJGRMHOSHXDMSA-UHFFFAOYSA-N
Temperature: 77 K
Tabular data in the source: 0
pressure (bar)	uptake (cm3(STP)/g)
0.0115933	299.498
0.0185493	309.532
0.0394173	318.562
0.0649226	326.589
0.0927465	330.602
0.111296	332.609
0.127526	334.615
0.157669	335.619
0.180856	338.629
0.204042	340.635
0.250416	341.639
0.271284	343.645
0.296789	345.652
0.322294	345.652
0.354756	346.656
0.387217	347.659
0.424315	348.662
0.445183	350.669
0.477645	349.666
0.510106	351.672
0.535611	351.672
0.561117	352.676
0.584303	352.676
0.630676	353.679
0.656182	354.682
0.681687	354.682
0.730379	357.692
0.74661	358.696
0.776752	358.696
0.823126	362.709
0.846312	363.712
0.874136	368.729
0.950652	375.753
