Adsorption isotherm of Nitrogen on RS-IRMOF-8
DOI: 10.1016/j.micromeso.2011.12.036
Adsorbate Nitrogen: InChIKey IJGRMHOSHXDMSA-UHFFFAOYSA-N
Temperature: 77 K
Tabular data in the source: 0
pressure (bar)	uptake (cm3(STP)/g)
0.0080955	286.59
0.0173282	296.892
0.029147	302.22
0.0383379	306.128
0.0462078	308.259
0.0724269	313.233
0.103883	318.206
0.124851	321.048
0.156294	323.89
0.175943	325.311
0.200827	326.377
0.224402	327.442
0.24536	328.863
0.268933	329.574
0.292505	330.284
0.317387	330.995
0.343583	332.416
0.392037	333.837
0.411675	333.481
0.440487	334.547
0.46275	335.258
0.48632	335.613
0.511202	336.323
0.532152	336.323
0.557031	336.679
0.597625	337.389
0.632977	337.389
0.656549	338.099
0.68274	338.81
0.704999	338.81
0.728571	339.52
0.753456	340.586
0.777026	340.941
0.801908	341.652
0.826789	342.362
0.852983	343.428
0.88967	347.336
0.905403	350.533
0.91721	354.085
0.923777	357.282
0.934268	359.769
0.952634	365.098
0.959206	369.005
