Adsorption isotherm of Hydrogen on C-IRMOF-8
DOI: 10.1016/j.micromeso.2011.12.036
Adsorbate Hydrogen: InChIKey UFHFLCQGNIYNRP-UHFFFAOYSA-N
Temperature: 77 K
Tabular data in the source: 0
pressure (bar)	uptake (wt%)
0.000304938	0.22059
0.0226569	0.389845
0.0366129	0.485518
0.0672083	0.618059
0.0866532	0.684355
0.103333	0.750633
0.131072	0.81698
0.156037	0.875956
0.178226	0.927563
0.217024	0.993977
0.255823	1.06039
0.30568	1.12687
0.336153	1.17118
0.366617	1.20813
0.433073	1.28207
0.499539	1.36336
0.565975	1.42259
0.668414	1.52615
0.801255	1.62256
0.911968	1.71147
1.04757	1.80789
1.1278	1.84515
