Adsorption isotherm of Nitrogen on C-IRMOF-8
DOI: 10.1016/j.micromeso.2011.12.036
Adsorbate Nitrogen: InChIKey IJGRMHOSHXDMSA-UHFFFAOYSA-N
Temperature: 77 K
Tabular data in the source: 0
pressure (bar)	uptake (cm3(STP)/g)
0.0115933	214.214
0.0231866	224.247
0.03478	229.264
0.0463733	233.278
0.0741972	236.288
0.102021	241.304
0.125208	243.311
0.15535	245.318
0.1739	245.318
0.199405	247.324
0.222592	249.331
0.248097	249.331
0.268965	250.334
0.29447	251.338
0.31302	251.338
0.340844	251.338
0.36403	253.344
0.387217	253.344
0.424315	254.348
0.461414	254.348
0.486919	255.351
0.507787	255.351
0.533293	256.355
0.556479	257.358
0.584303	256.355
0.60749	255.351
0.628358	256.355
0.653863	258.361
0.681687	258.361
0.72806	258.361
0.776752	258.361
0.825444	259.365
0.871817	260.368
0.904279	261.371
0.922828	262.375
0.950652	263.378
