Adsorption isotherm of Nitrogen on RS-IRMOF-8
DOI: 10.1016/j.micromeso.2011.12.036
Adsorbate Nitrogen: InChIKey IJGRMHOSHXDMSA-UHFFFAOYSA-N
Temperature: 77 K
Tabular data in the source: 0
pressure (bar)	uptake (cm3(STP)/g)
0.00830248	318.206
0.0175375	328.863
0.0280493	334.547
0.0411798	340.231
0.0647826	345.56
0.0910017	350.533
0.130309	354.796
0.157824	357.638
0.203666	360.124
0.229867	362.256
0.248202	362.966
0.282254	364.387
0.313687	365.808
0.358213	367.229
0.397498	367.94
0.439406	369.361
0.489167	370.426
0.512737	370.782
0.609639	372.558
0.633209	372.913
0.658089	373.268
0.682975	374.689
0.728804	375.044
0.779879	376.821
0.803452	377.531
0.827024	378.242
0.853222	380.018
0.875493	381.794
0.903007	384.636
0.922668	387.833
0.934468	390.32
0.952834	395.648
0.958096	399.556
