Adsorption isotherm of Hydrogen on RS-IRMOF-8
DOI: 10.1016/j.micromeso.2011.12.036
Adsorbate Hydrogen: InChIKey UFHFLCQGNIYNRP-UHFFFAOYSA-N
Temperature: 77 K
Tabular data in the source: 0
pressure (bar)	uptake (wt%)
0.0392862	0.419358
0.0559764	0.49299
0.105946	0.640355
0.13093	0.714038
0.158669	0.780384
0.189163	0.839394
0.233491	0.905843
0.272289	0.972257
0.308292	1.0166
0.338755	1.05355
0.369219	1.0905
0.396938	1.14214
0.43293	1.17912
0.466159	1.21609
0.499376	1.24571
0.535369	1.28269
0.568597	1.31966
0.593501	1.33452
0.623954	1.36412
0.651632	1.38635
0.68484	1.40861
0.712528	1.43819
0.751255	1.45313
0.790003	1.48278
0.825995	1.51977
0.859193	1.53468
0.892401	1.55694
0.920069	1.57181
0.953287	1.60143
0.992014	1.61637
1.02246	1.63862
1.06119	1.66091
1.09715	1.66849
1.13588	1.69078
