Adsorption isotherm of Nitrogen on RS-IRMOF-8
DOI: 10.1016/j.micromeso.2011.12.036
Adsorbate Nitrogen: InChIKey IJGRMHOSHXDMSA-UHFFFAOYSA-N
Temperature: 77 K
Tabular data in the source: 0
pressure (bar)	uptake (cm3(STP)/g)
0.0085676	358.703
0.0204329	371.137
0.0296401	377.531
0.0440682	381.439
0.0676803	388.188
0.0886598	392.806
0.105697	395.293
0.124046	398.135
0.158105	400.622
0.176445	402.043
0.22229	404.885
0.269442	407.371
0.294326	408.437
0.317896	408.792
0.366351	410.213
0.413494	411.279
0.463255	412.345
0.513014	413.055
0.561466	414.121
0.629556	414.831
0.683247	416.252
0.733002	416.252
0.806329	416.963
0.853469	417.673
0.892753	418.384
0.918947	419.449
0.943824	419.449
0.964787	421.581
