Adsorption isotherm of Nitrogen on C-IRMOF-8
DOI: 10.1016/j.micromeso.2011.12.036
Adsorbate Nitrogen: InChIKey IJGRMHOSHXDMSA-UHFFFAOYSA-N
Temperature: 77 K
Tabular data in the source: 0
pressure (bar)	uptake (cm3(STP)/g)
0.00927465	331.605
0.0162306	340.635
0.0324613	348.662
0.0510106	358.696
0.0741972	362.709
0.102021	366.722
0.122889	370.736
0.164625	374.749
0.217954	377.759
0.257372	380.769
0.317657	383.779
0.370986	385.786
0.440546	387.793
0.493875	389.799
0.544886	390.803
0.584303	392.809
0.62372	393.813
0.6585	393.813
0.702555	396.823
0.751247	397.826
0.79762	399.833
0.850949	402.843
0.885729	404.849
0.927465	405.853
0.962245	408.863
