Adsorption isotherm of Hydrogen on RS-IRMOF-8
DOI: 10.1016/j.micromeso.2011.12.036
Adsorbate Hydrogen: InChIKey UFHFLCQGNIYNRP-UHFFFAOYSA-N
Temperature: 77 K
Tabular data in the source: 0
pressure (bar)	uptake (wt%)
0.00572267	0.139741
0.00858908	0.213288
0.0225349	0.301609
0.039276	0.412005
0.0532218	0.500326
0.0782166	0.581362
0.0976309	0.625598
0.117076	0.691894
0.144825	0.765593
0.169789	0.82457
0.203058	0.89095
0.233552	0.949961
0.255731	0.994214
0.294519	1.05328
0.330542	1.11232
0.363781	1.15664
0.397039	1.21567
0.433032	1.25265
0.480115	1.31177
0.529962	1.37089
0.571484	1.40791
0.599183	1.44485
0.635155	1.46713
0.660079	1.49669
0.701601	1.53371
0.743134	1.57808
0.795715	1.61517
0.837227	1.64484
0.86768	1.67443
0.898113	1.68933
0.931341	1.7263
0.986677	1.75605
1.04478	1.78581
1.06693	1.80801
1.09737	1.83025
1.13333	1.84518
