Adsorption isotherm of Hydrogen on RS-IRMOF-8
DOI: 10.1016/j.micromeso.2011.12.036
Adsorbate Hydrogen: InChIKey UFHFLCQGNIYNRP-UHFFFAOYSA-N
Temperature: 77 K
Tabular data in the source: 0
pressure (bar)	uptake (wt%)
0.00301888	0.183842
0.022667	0.397198
0.0505282	0.55178
0.0783182	0.654892
0.100548	0.73591
0.133827	0.809644
0.153262	0.868586
0.183766	0.93495
0.211474	0.979237
0.244723	1.03091
0.266912	1.08252
0.297386	1.12682
0.338918	1.17119
0.366627	1.21548
0.405384	1.25248
0.433073	1.28207
0.466321	1.33374
0.499539	1.36336
0.535522	1.39299
0.56321	1.42257
0.610262	1.45962
0.665629	1.51143
0.698836	1.53369
0.853816	1.64494
0.898093	1.67462
0.925761	1.6895
0.964508	1.71915
1.00601	1.74146
1.06134	1.76386
1.13052	1.8084
