Adsorption isotherm of Nitrogen on C-IRMOF-8
DOI: 10.1016/j.micromeso.2011.12.036
Adsorbate Nitrogen: InChIKey IJGRMHOSHXDMSA-UHFFFAOYSA-N
Temperature: 77 K
Tabular data in the source: 0
pressure (bar)	uptake (cm3(STP)/g)
0.00927465	315.552
0.0185493	326.589
0.0301426	331.605
0.0394173	334.615
0.0486919	337.625
0.0718786	343.645
0.102021	348.662
0.125208	351.672
0.148394	353.679
0.180856	354.682
0.204042	357.692
0.241141	359.699
0.271284	359.699
0.292152	361.706
0.340844	362.709
0.389535	364.716
0.415041	365.719
0.459095	367.726
0.486919	368.729
0.535611	368.729
0.561117	370.736
0.584303	370.736
0.60749	370.736
0.630676	372.742
0.656182	373.746
0.681687	374.749
0.707192	375.753
0.72806	376.756
0.753566	377.759
0.774434	379.766
0.799939	383.779
0.825444	383.779
0.848631	385.786
0.874136	388.796
0.90196	390.803
0.913553	392.809
0.934421	392.809
0.952971	392.809
