Adsorption isotherm of Hydrogen on RS-IRMOF-8
DOI: 10.1016/j.micromeso.2011.12.036
Adsorbate Hydrogen: InChIKey UFHFLCQGNIYNRP-UHFFFAOYSA-N
Temperature: 77 K
Tabular data in the source: 0
pressure (bar)	uptake (wt%)
0.225288	0.971969
0.280716	1.0679
0.402579	1.22306
0.460741	1.29694
0.510578	1.34872
0.560394	1.38579
0.599142	1.41544
0.635135	1.45242
0.679402	1.47475
0.729228	1.51917
0.765191	1.5341
0.815018	1.57852
0.870354	1.60827
0.917395	1.63797
0.969957	1.66036
1.01423	1.69004
1.06127	1.71239
