Adsorption isotherm of Cr(VI) on FeMnOX/MWCNTs
DOI: 10.1080/01496395.2021.1897626
Article source: Figure 8A
Adsorbate Cr(VI): InChIKey JOPOVCBBYLSVDA-UHFFFAOYSA-N
Kind: experiment
Temperature: 303 K
Tabular data in the source: 0
pressure (bar)	uptake (g/l)
1.01325	0
1.01325	0.034286
1.01325	0.175714
1.01325	0.245714
1.01325	0.458571
1.01325	0.565714
