Adsorption isotherm of As(III) on FeMnOX/MWCNTs
DOI: 10.1080/01496395.2021.1897626
Article source: Figure 8C
Adsorbate As(III): InChIKey LULLIKNODDLMDQ-UHFFFAOYSA-N
Kind: experiment
Temperature: 308 K
Tabular data in the source: 0
pressure (bar)	uptake (g/l)
1.01325	0.000429
1.01325	0.01072
1.01325	0.045026
1.01325	0.08705
1.01325	0.172384
