Adsorption isotherm of Cr(VI) on FeMnOX/MWCNTs
DOI: 10.1080/01496395.2021.1897626
Article source: Figure 8A
Adsorbate Cr(VI): InChIKey JOPOVCBBYLSVDA-UHFFFAOYSA-N
Kind: experiment
Temperature: 298 K
Tabular data in the source: 0
pressure (bar)	uptake (g/l)
1.01325	0.01
1.01325	0.045714
1.01325	0.118571
1.01325	0.277143
1.01325	0.458571
