Adsorption isotherm of Cr(VI) on FeMnOX/MWCNTs
DOI: 10.1080/01496395.2021.1897626
Article source: Figure 8A
Adsorbate Cr(VI): InChIKey JOPOVCBBYLSVDA-UHFFFAOYSA-N
Kind: experiment
Temperature: 308 K
Tabular data in the source: 0
pressure (bar)	uptake (g/l)
1.01325	0.001429
1.01325	0.037143
1.01325	0.242857
1.01325	0.304286
1.01325	0.624286
1.01325	0.815714
