Adsorption isotherm of As(III) on FeMnOX/MWCNTs
DOI: 10.1080/01496395.2021.1897626
Article source: Figure 8C
Adsorbate As(III): InChIKey LULLIKNODDLMDQ-UHFFFAOYSA-N
Kind: experiment
Temperature: 298 K
Tabular data in the source: 0
pressure (bar)	uptake (g/l)
1.01325	0
1.01325	0.01458
1.01325	0.019297
1.01325	0.074185
1.01325	0.128216
1.01325	0.243139
