Adsorption isotherm of As(III) on FeMnOX/MWCNTs
DOI: 10.1080/01496395.2021.1897626
Article source: Figure 8C
Adsorbate As(III): InChIKey LULLIKNODDLMDQ-UHFFFAOYSA-N
Kind: experiment
Temperature: 303 K
Tabular data in the source: 0
pressure (bar)	uptake (g/l)
1.01325	0
1.01325	0.014151
1.01325	0.015866
1.01325	0.057461
1.01325	0.104202
1.01325	0.190823
