Adsorption isotherm of Water on Silicalite MFI/Na
DOI: 10.1016/j.micromeso.2009.03.045
Adsorbate Water: InChIKey XLYOFNOQVPJJNP-UHFFFAOYSA-N
Temperature: 298 K
Tabular data in the source: 0
pressure (bar)	uptake (mmol/g)
3.41e-05	1.09681
0.000904728	1.3734
0.00142375	1.43063
0.00194306	1.49739
0.00237647	1.57369
0.00306731	1.61184
0.00375874	1.66907
0.0049686	1.76444
0.00531343	1.76444
0.00600456	1.81213
0.00678161	1.85028
0.00755866	1.88843
0.00781698	1.87889
0.00850812	1.92658
0.00928487	1.95519
0.0103205	1.99334
0.011097	2.01242
0.0119599	2.04103
0.0128223	2.05057
0.0135994	2.08872
0.0143761	2.11733
0.0153253	2.14594
0.0161017	2.16502
0.0169644	2.18409
0.0178268	2.19363
0.0185176	2.23178
0.0193806	2.26039
0.0203297	2.28901
0.0211068	2.32716
0.0218838	2.36531
0.022833	2.39392
0.0236097	2.42253
0.0244727	2.45114
0.0254216	2.47022
0.0262836	2.47022
0.0271454	2.46068
0.0282673	2.49883
0.0290443	2.53698
0.0297358	2.59421
0.0304257	2.60374
0.0312025	2.63236
0.0320651	2.65143
0.0331876	2.70866
0.033879	2.76588
0.0344845	2.83264
0.0352622	2.88987
