Adsorption isotherm of Water on Silicalite MFI/2Na
DOI: 10.1016/j.micromeso.2009.03.045
Adsorbate Water: InChIKey XLYOFNOQVPJJNP-UHFFFAOYSA-N
Temperature: 298 K
Tabular data in the source: 0
pressure (bar)	uptake (mmol/g)
0.000121164	1.12543
0.000468361	1.20173
0.00142019	1.31618
0.00228463	1.39248
0.00288838	1.40202
0.0034933	1.4497
0.00435656	1.48785
0.00547814	1.51647
0.00616898	1.55462
0.00703194	1.58323
0.007894	1.58323
0.00867075	1.61184
0.00944721	1.63092
0.0104823	1.64999
0.0113449	1.66907
0.0129838	1.69768
0.0138464	1.71675
0.0146232	1.74537
0.0154852	1.74537
0.0163479	1.76444
0.0180723	1.77398
0.0188488	1.79305
0.0196253	1.81213
0.0204873	1.81213
0.02135	1.8312
0.0230747	1.85028
0.0239371	1.85982
0.0247132	1.86935
0.0255756	1.87889
0.0264383	1.89797
0.0272144	1.9075
0.0280765	1.9075
0.0288532	1.93612
0.0297159	1.95519
0.030578	1.95519
0.0314406	1.97427
0.0322171	1.99334
0.0331654	1.99334
0.0339421	2.02195
0.0348048	2.04103
0.0352358	2.04103
