Adsorption isotherm of Water on Silicalite MFI/Cs
DOI: 10.1016/j.micromeso.2009.03.045
Adsorbate Water: InChIKey XLYOFNOQVPJJNP-UHFFFAOYSA-N
Temperature: 298 K
Tabular data in the source: 0
pressure (bar)	uptake (mmol/g)
0.000829384	1.27725
0.00248815	1.41834
0.0049763	1.55943
0.00746445	1.63369
0.0100355	1.69309
0.0111967	1.7228
0.0124408	1.74508
0.0150118	1.79706
0.01609	1.82676
0.0175	1.84904
0.0184953	1.86389
0.0199052	1.87874
0.0213152	1.90102
0.0225592	1.9233
0.0236374	1.93815
0.0243839	1.953
0.0249645	1.96043
0.0259597	1.97528
0.0275355	2.00498
0.0286967	2.01983
0.0300237	2.03468
0.0313507	2.05696
0.0325948	2.08666
0.0337559	2.10152
0.0351659	2.10894
