Adsorption isotherm of Water on Silicalite MFI
DOI: 10.1016/j.micromeso.2009.03.045
Adsorbate Water: InChIKey XLYOFNOQVPJJNP-UHFFFAOYSA-N
Temperature: 298 K
Tabular data in the source: 0
pressure (bar)	uptake (mmol/g)
0.0025	0.00238106
0.00492187	0.00238106
0.00757812	0.00476211
0.00992187	0.00714317
0.0124219	0.0083337
0.015	0.00952422
0.0175781	0.0119053
0.01875	0.0130958
0.0200781	0.0142863
0.02125	0.0142863
0.0225	0.0154769
0.0235156	0.0154769
0.025	0.0178579
0.0263281	0.0178579
0.0275781	0.0190484
0.0279687	0.0190484
0.0286719	0.020239
0.0294531	0.0214295
0.0305469	0.02262
0.0313281	0.02262
0.0321094	0.0238106
0.0330469	0.0238106
0.0338281	0.0250011
0.0349219	0.0261916
