Adsorption isotherm of Water on Silicalite MFI
DOI: 10.1016/j.micromeso.2009.03.045
Adsorbate Water: InChIKey XLYOFNOQVPJJNP-UHFFFAOYSA-N
Temperature: 298 K
Tabular data in the source: 0
pressure (bar)	uptake (mmol/g)
0.00117187	0.00595264
0.0025	0.0154769
0.00320312	0.020239
0.00390625	0.0250011
0.005	0.0309537
0.00539062	0.0333348
0.00609375	0.0357158
0.006875	0.0392874
0.00757812	0.042859
0.00796875	0.0452401
0.00867187	0.0488117
0.009375	0.0535738
0.01	0.0559548
0.0104687	0.0583359
0.01125	0.0607169
0.0119531	0.063098
0.0125	0.0642885
0.0129687	0.0666696
0.01375	0.0690506
0.0144531	0.0726222
0.0154687	0.0761938
0.01625	0.0797654
0.016875	0.083337
0.0179687	0.085718
0.01875	0.0869086
0.0194531	0.0892896
0.0200781	0.0892896
0.0204688	0.0940517
0.0211719	0.100004
0.021875	0.104766
0.0224219	0.109529
0.0229687	0.11191
0.02375	0.1131
0.0245312	0.114291
0.0249219	0.114291
0.0261719	0.116672
0.0275781	0.120243
0.0279687	0.122624
0.0286719	0.126196
0.0294531	0.130958
0.0304687	0.13572
0.0311719	0.139292
0.031875	0.142863
0.0329687	0.148816
0.03375	0.151197
0.0344531	0.152388
0.0349219	0.153578
