Adsorption isotherm of Water on Silicalite MFI
DOI: 10.1016/j.micromeso.2009.03.045
Adsorbate Water: InChIKey XLYOFNOQVPJJNP-UHFFFAOYSA-N
Temperature: 298 K
Tabular data in the source: 0
pressure (bar)	uptake (mmol/g)
0.0009375	0.00357158
0.00265625	0.0119053
0.00359375	0.0178579
0.005	0.02262
0.00632812	0.0285727
0.00757812	0.0333348
0.01	0.0392874
0.0124219	0.0547643
0.015	0.0583359
0.0152344	0.0571453
0.0160156	0.0595264
0.0167187	0.0607169
0.0178906	0.063098
0.0184375	0.0678601
0.0200781	0.0702412
0.0204688	0.0702412
0.0210937	0.0761938
0.0217969	0.0797654
0.0230469	0.0845275
0.0238281	0.0845275
0.0246094	0.0869086
0.0253906	0.0869086
0.0260937	0.0904801
0.0267969	0.0928612
0.0279687	0.0952422
0.0286719	0.100004
0.029375	0.102385
0.0304687	0.105957
0.0310156	0.11191
0.0317969	0.114291
0.0328906	0.119053
0.0336719	0.116672
0.034375	0.115481
0.035	0.1131
