Adsorption isotherm of Water on Silicalite MFI/Li
DOI: 10.1016/j.micromeso.2009.03.045
Adsorbate Water: InChIKey XLYOFNOQVPJJNP-UHFFFAOYSA-N
Temperature: 298 K
Tabular data in the source: 0
pressure (bar)	uptake (mmol/g)
0	0.727734
0.000331754	0.801992
0.000663507	0.861399
0.000912322	0.935657
0.00124408	0.972787
0.00190758	1.01734
0.00273697	1.08417
0.00348341	1.1213
0.00422986	1.15101
0.0049763	1.19556
0.00530806	1.21041
0.00597156	1.21784
0.00680095	1.23269
0.00738152	1.25497
0.00787915	1.26982
0.00870853	1.28467
0.00945498	1.29952
0.00995261	1.31438
0.0104502	1.3218
0.0112796	1.32923
0.0129384	1.35151
0.0137678	1.36636
0.0145142	1.38121
0.0154265	1.39606
0.0162559	1.40349
0.0170853	1.41091
0.0175	1.41834
0.0179147	1.42576
0.0187441	1.43319
0.0195735	1.44062
0.0199052	1.44804
0.0204858	1.45547
0.0213152	1.47032
0.0225592	1.4926
0.022891	1.4926
0.0237204	1.4926
0.0245498	1.4926
0.0254621	1.50745
0.0262915	1.51487
0.0270379	1.52973
0.0275355	1.54458
0.0279502	1.54458
0.0287796	1.55943
0.0295261	1.56685
0.0300237	1.56685
0.0304384	1.56685
0.0312678	1.56685
0.0320972	1.56685
0.0325948	1.56685
0.0328436	1.58913
0.03359	1.60398
0.0343365	1.62626
0.0350829	1.64854
