Adsorption isotherm of Water on Silicalite MFI
DOI: 10.1016/j.micromeso.2009.03.045
Adsorbate Water: InChIKey XLYOFNOQVPJJNP-UHFFFAOYSA-N
Temperature: 298 K
Tabular data in the source: 0
pressure (bar)	uptake (mmol/g)
0.0025	0.00119053
0.00492187	5.55e-17
0.0075	0.00119053
0.00992187	0.00357158
0.0123437	0.00238106
0.015	0.00238106
0.0176562	0.00595264
0.0199219	0.00595264
0.0225	0.00595264
0.025	0.00595264
0.0275781	0.00714317
0.0299219	0.0083337
0.0325	0.00952422
0.0350781	0.00952422
