Adsorption isotherm of Water on Silicalite MFI/Rb
DOI: 10.1016/j.micromeso.2009.03.045
Adsorbate Water: InChIKey XLYOFNOQVPJJNP-UHFFFAOYSA-N
Temperature: 298 K
Tabular data in the source: 0
pressure (bar)	uptake (mmol/g)
8.29e-05	1.1213
0.000995261	1.35151
0.00248815	1.5223
0.00489336	1.62626
0.00738152	1.74508
0.00986967	1.80448
0.0125237	1.85646
0.0150118	1.90102
0.0175	1.96785
0.0199882	2.00498
0.0225592	2.04954
0.0250474	2.10152
0.0275355	2.13122
0.0300237	2.19805
0.0325948	2.2129
0.035	2.25003
