Adsorption isotherm of Water on Silicalite MFI
DOI: 10.1016/j.micromeso.2009.03.045
Adsorbate Water: InChIKey XLYOFNOQVPJJNP-UHFFFAOYSA-N
Temperature: 298 K
Tabular data in the source: 0
pressure (bar)	uptake (mmol/g)
0.00265625	0.00714317
0.00382812	0.00952422
0.005	0.0154769
0.005625	0.0178579
0.00632812	0.0214295
0.00757812	0.0238106
0.0100781	0.0309537
0.0124219	0.0452401
0.0150781	0.0559548
0.0176562	0.0619075
0.02	0.0809559
0.0204688	0.083337
0.0211719	0.0845275
0.021875	0.0869086
0.0230469	0.0916707
0.02375	0.0952422
0.0245312	0.0988138
0.025	0.100004
0.0275	0.130958
0.0279687	0.139292
0.0285156	0.147625
0.0289844	0.15715
0.0294531	0.166674
0.03	0.177389
0.0303906	0.189294
0.0307031	0.200009
0.0310156	0.210723
0.03125	0.222629
0.0315625	0.233344
0.031875	0.244058
0.0321875	0.254773
0.0325781	0.269059
0.0328125	0.288108
0.0329687	0.300013
0.033125	0.310728
0.0333594	0.322633
0.0335156	0.334538
0.0336719	0.346444
0.0338281	0.358349
0.0339844	0.369064
0.0342187	0.380969
0.034375	0.392874
0.0345312	0.40478
0.0346875	0.415494
0.0350781	0.436924
