Adsorption isotherm of Water on Silicalite MFI/K
DOI: 10.1016/j.micromeso.2009.03.045
Adsorbate Water: InChIKey XLYOFNOQVPJJNP-UHFFFAOYSA-N
Temperature: 298 K
Tabular data in the source: 0
pressure (bar)	uptake (mmol/g)
0.000829384	1.35893
0.00165877	1.44062
0.00232227	1.51487
0.00505924	1.68567
0.00746445	1.76735
0.00879147	1.79706
0.0100355	1.82676
0.0124408	1.89359
0.014846	1.94557
0.0175	1.99013
0.0185782	1.99755
0.0199882	2.02726
0.0224763	2.07181
0.0248815	2.12379
0.0261256	2.13122
0.0276185	2.1535
0.0299408	2.19063
0.0325118	2.24261
0.0337559	2.27231
0.0349171	2.29459
