Adsorption isotherm of Water on Silicalite MFI/Na
DOI: 10.1016/j.micromeso.2009.03.045
Adsorbate Water: InChIKey XLYOFNOQVPJJNP-UHFFFAOYSA-N
Temperature: 298 K
Tabular data in the source: 0
pressure (bar)	uptake (mmol/g)
0.000165877	1.1213
0.000912322	1.26239
0.00157583	1.35151
0.00232227	1.39606
0.00298578	1.41091
0.00348341	1.46289
0.00422986	1.50002
0.0049763	1.51487
0.00597156	1.55943
0.00738152	1.59656
0.00812796	1.61141
0.00887441	1.62626
0.0106161	1.67082
0.0114455	1.67824
0.0131043	1.71537
0.0139336	1.73022
0.0155924	1.75993
0.0164218	1.77478
0.0175829	1.7822
0.0180806	1.79706
0.01891	1.80448
0.0205687	1.82676
0.0213981	1.83419
0.0230569	1.86389
0.0238863	1.87131
0.0248815	1.88617
0.0254621	1.88617
0.0262915	1.90102
0.0270379	1.91587
0.0275355	1.91587
0.0279502	1.91587
0.0286967	1.93815
0.0294431	1.953
0.0299408	1.96043
0.0305213	1.96043
0.0312678	1.97528
0.0320142	1.99755
0.0325118	1.99755
0.0330095	1.99755
0.0337559	2.01983
0.0345024	2.04211
0.0350829	2.04954
