Adsorption isotherm of Water on Silicalite MFI
DOI: 10.1016/j.micromeso.2009.03.045
Adsorbate Water: InChIKey XLYOFNOQVPJJNP-UHFFFAOYSA-N
Temperature: 298 K
Tabular data in the source: 0
pressure (bar)	uptake (mmol/g)
0.000862365	0.00953752
0.00241409	0.00953752
0.00482818	0.019075
0.00732847	0.0286126
0.00991498	0.0381501
0.0106046	0.0381501
0.011467	0.0476876
0.0130187	0.0476876
0.0138808	0.0476876
0.0155187	0.0476876
0.0162949	0.0572251
0.018019	0.0572251
0.0188811	0.0572251
0.0204331	0.0667626
0.0212955	0.0763002
0.0221575	0.0763002
0.0228472	0.0763002
0.0237093	0.0763002
0.0244851	0.0763002
0.0254334	0.0763002
0.0262958	0.0858377
0.0271578	0.0858377
0.027934	0.0953752
0.0287961	0.0953752
0.0296581	0.0953752
0.0304343	0.104913
0.0312964	0.104913
0.0320725	0.11445
0.0330208	0.11445
0.0338829	0.11445
0.0346584	0.104913
0.0350898	0.11445
