Adsorption isotherm of Fluoride Ion, Water on UOP-201 activated alumina
DOI: 10.1016/j.seppur.2017.06.042
Article source: Figure 3
Adsorbate Fluoride Ion: InChIKey KRHYYFGTRYWZRS-UHFFFAOYSA-M
Adsorbate Water: InChIKey XLYOFNOQVPJJNP-UHFFFAOYSA-N
Kind: experiment
Temperature: 303 K
Tabular data in the source: 0
pressure (bar)	Fluoride Ion fraction	Fluoride Ion uptake ()	Water fraction	Water uptake ()	total uptake ()
1.01325	13.189	1.768			
1.01325	20.159	2.803			
1.01325	21.099	1.835			
1.01325	26.984	1.844			
1.01325	26.988	2.968			
1.01325	34.122	3.246			
1.01325	36.037	3.124			
1.01325	41.924	3.948			
1.01325	55.359	4.333			
1.01325	56.83	4.187			
1.01325	70.072	4.979			
1.01325	71.349	4.914			
1.01325	81.851	7.994			
1.01325	85.064	5.927			
1.01325	100.208	11.019			
1.01325	120.175	14.125			
1.01325	130.075	19.858			
