Adsorption isotherm of Fluoride Ion on UOP-201 activated alumina
DOI: 10.1016/j.seppur.2017.06.042
Article source: Figure 2
Adsorbate Fluoride Ion: InChIKey KRHYYFGTRYWZRS-UHFFFAOYSA-M
Kind: experiment
Temperature: 303 K
Tabular data in the source: 0
pressure (bar)	uptake (mmol/g)
1.01325	0.05933
1.01325	0.0627
1.01325	0.07404
1.01325	0.08578
1.01325	0.09587
1.01325	0.1198
1.01325	0.15635
1.01325	0.20546
1.01325	0.29238
1.01325	0.27227
1.01325	0.39019
1.01325	0.36045
1.01325	0.59253
