Adsorption isotherm of Fluoride Ion, Water on UOP-201 activated alumina
DOI: 10.1016/j.seppur.2017.06.042
Article source: Figure 4
Adsorbate Fluoride Ion: InChIKey KRHYYFGTRYWZRS-UHFFFAOYSA-M
Adsorbate Water: InChIKey XLYOFNOQVPJJNP-UHFFFAOYSA-N
Kind: experiment
Temperature: 303 K
Tabular data in the source: 0
pressure (bar)	Fluoride Ion fraction	Fluoride Ion uptake (mmol/kg)	Water fraction	Water uptake (mmol/kg)	total uptake (mmol/kg)
1.01325	0.7822	0.4398			
1.01325	0.7823	0.48181			
1.01325	1.1584	0.47171			
1.01325	1.1695	0.55152			
1.01325	1.5949	0.64223			
1.01325	1.6305	0.73128			
1.01325	1.9575	0.67582			
1.01325	1.9876	0.7447			
1.01325	2.38	0.69092			
1.01325	3.1353	0.8379			
1.01325	3.1545	0.89166			
1.01325	3.8525	1.00168			
1.01325	3.9507	1.02604			
1.01325	3.9943	1.0336			
1.01325	4.5722	1.06633			
1.01325	4.6482	0.93779			
1.01325	5.6378	1.01419			
1.01325	5.7798	1.136			
1.01325	6.9138	1.20903			
1.01325	7.0581	1.1561			
1.01325	7.6627	1.42961			
1.01325	7.8977	1.1947			
