Adsorption isotherm of Fluoride Ion, Water on UOP-201 activated alumina
DOI: 10.1016/j.seppur.2017.06.042
Article source: Figure 5
Adsorbate Fluoride Ion: InChIKey KRHYYFGTRYWZRS-UHFFFAOYSA-M
Adsorbate Water: InChIKey XLYOFNOQVPJJNP-UHFFFAOYSA-N
Kind: experiment
Temperature: 303 K
Tabular data in the source: 0
pressure (bar)	Fluoride Ion fraction	Fluoride Ion uptake ()	Water fraction	Water uptake ()	total uptake ()
1.01325	2.041	13.358			
1.01325	3.869	19.154			
1.01325	4.879	16.49			
1.01325	8.631	22.912			
1.01325	9.645	18.366			
1.01325	12.895	24.867			
1.01325	21.014	24.547			
1.01325	21.773	21.961			
1.01325	21.937	23.45			
1.01325	32.726	26.967			
1.01325	33.816	26.026			
1.01325	47.037	27.348			
1.01325	48.711	27.111			
1.01325	57.906	32.041			
1.01325	63.107	27.1			
1.01325	78.997	32.181			
1.01325	84.109	29.513			
1.01325	93.121	41.18			
1.01325	99.099	35.103			
1.01325	100.131	50.186			
1.01325	111.016	38.953			
