Adsorption isotherm of Fluoride Ion on UOP-201 activated alumina
DOI: 10.1016/j.seppur.2017.06.042
Article source: Figure 2
Adsorbate Fluoride Ion: InChIKey KRHYYFGTRYWZRS-UHFFFAOYSA-M
Kind: experiment
Temperature: 303 K
Tabular data in the source: 0
pressure (bar)	uptake (mg/g)
1.01325	1.1337
1.01325	1.118
1.01325	1.1976
1.01325	1.4677
1.01325	1.4836
1.01325	1.6741
1.01325	1.6425
1.01325	1.8173
1.01325	2.2778
1.01325	2.2461
1.01325	3.0875
1.01325	3.9448
1.01325	2.8813
1.01325	3.8496
1.01325	7.4848
1.01325	5.6752
1.01325	11.2787
1.01325	6.961
1.01325	5.1514
