Adsorption isotherm of Fluoride Ion, Water on UOP-201 activated alumina
DOI: 10.1016/j.seppur.2017.06.042
Article source: Figure 5
Adsorbate Fluoride Ion: InChIKey KRHYYFGTRYWZRS-UHFFFAOYSA-M
Adsorbate Water: InChIKey XLYOFNOQVPJJNP-UHFFFAOYSA-N
Kind: experiment
Temperature: 303 K
Tabular data in the source: 0
pressure (bar)	Fluoride Ion fraction	Fluoride Ion uptake (mmol/g)	Water fraction	Water uptake (mmol/g)	total uptake (mmol/g)
1.01325	0.7905	0.6962			
1.01325	1.1977	1.0051			
1.01325	1.198	0.8585			
1.01325	1.627	0.949			
1.01325	1.6373	1.2079			
1.01325	1.9861	1.158			
1.01325	1.9965	1.3172			
1.01325	2.3614	1.2798			
1.01325	2.3722	1.2298			
1.01325	3.1551	1.4171			
1.01325	3.1606	1.3609			
1.01325	4.0027	1.4297			
1.01325	4.7533	1.6918			
1.01325	4.7538	1.4266			
1.01325	5.8531	1.695			
1.01325	5.8587	1.5546			
1.01325	7.0647	2.1662			
1.01325	7.0652	1.8511			
1.01325	7.9008	2.6342			
1.01325	7.9125	2.0727			
