Adsorption isotherm of Fluoride Ion, Water on UOP-201 activated alumina
DOI: 10.1016/j.seppur.2017.06.042
Article source: Figure 3
Adsorbate Fluoride Ion: InChIKey KRHYYFGTRYWZRS-UHFFFAOYSA-M
Adsorbate Water: InChIKey XLYOFNOQVPJJNP-UHFFFAOYSA-N
Kind: experiment
Temperature: 303 K
Tabular data in the source: 0
pressure (bar)	Fluoride Ion fraction	Fluoride Ion uptake (mmol/g)	Water fraction	Water uptake (mmol/g)	total uptake (mmol/g)
1.01325	0.7841	0.09659			
1.01325	1.1635	0.14909			
1.01325	1.1975	0.09763			
1.01325	1.6235	0.10362			
1.01325	1.6359	0.15607			
1.01325	1.9775	0.16799			
1.01325	2.3654	0.20961			
1.01325	3.2216	0.22554			
1.01325	3.9343	0.26423			
1.01325	4.697	0.42663			
1.01325	4.744	0.31678			
1.01325	5.7635	0.5762			
1.01325	5.8098	0.58511			
1.01325	7.0745	0.7456			
1.01325	7.828	1.04754			
1.01325	7.9883	1.04657			
