Adsorption isotherm of Fluoride Ion, Water on UOP-201 activated alumina
DOI: 10.1016/j.seppur.2017.06.042
Article source: Figure 4
Adsorbate Fluoride Ion: InChIKey KRHYYFGTRYWZRS-UHFFFAOYSA-M
Adsorbate Water: InChIKey XLYOFNOQVPJJNP-UHFFFAOYSA-N
Kind: experiment
Temperature: 303 K
Tabular data in the source: 0
pressure (bar)	Fluoride Ion fraction	Fluoride Ion uptake ()	Water fraction	Water uptake ()	total uptake ()
1.01325	5.712	9.041			
1.01325	6.421	8.31			
1.01325	12.116	10.464			
1.01325	13.534	8.887			
1.01325	17.813	13.58			
1.01325	18.521	12.157			
1.01325	23.707	14.195			
1.01325	24.719	12.81			
1.01325	32.237	12.964			
1.01325	43.219	16.81			
1.01325	43.827	16.041			
1.01325	55.925	19.618			
1.01325	56.33	18.964			
1.01325	69.134	20.271			
1.01325	71.87	17.77			
1.01325	89.049	21.655			
1.01325	91.075	19.193			
1.01325	111.098	23.039			
1.01325	112.01	22			
1.01325	121.979	27.232			
1.01325	126.946	22.73			
