Adsorption isotherm of M-Xylene on Zn(BDC)(DABCO)0.5
DOI: 10.1016/j.micromeso.2012.01.033
Adsorbate M-Xylene: InChIKey IVSZLXZYQVIEFR-UHFFFAOYSA-N
Temperature: 398 K
Tabular data in the source: 0
pressure (bar)	uptake (mmol/g)
0.000840105	0.509643
0.001665	0.873674
0.0024785	1.1285
0.00368163	1.34691
0.00488477	1.56533
0.00647755	1.74735
0.00885531	1.91116
0.0116227	2.03857
0.016363	2.22059
0.0207023	2.3298
0.0270069	2.42081
0.0344899	2.49361
0.0403972	2.54822
0.047483	2.58462
0.0557491	2.62102
0.0628349	2.65743
0.0710991	2.67563
0.0773961	2.69383
0.0829081	2.73023
0.0868425	2.73023
0.0888116	2.74843
0.092746	2.74843
0.0966823	2.76664
0.100617	2.76664
0.104553	2.78484
0.108488	2.78484
0.114389	2.78484
