Adsorption isotherm of M-Xylene on Zn(BDC)(DABCO)0.5
DOI: 10.1016/j.micromeso.2012.01.033
Adsorbate M-Xylene: InChIKey IVSZLXZYQVIEFR-UHFFFAOYSA-N
Temperature: 398 K
Tabular data in the source: 0
pressure (bar)	uptake (mmol/g)
0.000513186	1.1467
0.00133809	1.51073
0.00176384	1.82015
0.00257923	2.09318
0.0049684	2.3662
0.00694892	2.49361
0.00853219	2.58462
0.00972012	2.65743
0.0116911	2.69383
0.0148482	2.78484
0.0203659	2.87584
0.0282442	2.96685
0.0345431	3.00326
0.040842	3.03966
0.0463521	3.05786
0.0542248	3.09426
0.0581592	3.09426
0.0609152	3.11246
0.0648496	3.11246
0.0691794	3.13067
0.0731138	3.13067
0.0825583	3.14887
0.0864928	3.14887
0.0923963	3.16707
0.0963307	3.16707
0.100265	3.16707
0.104988	3.18527
0.108923	3.18527
0.112857	3.18527
0.114824	3.18527
