Adsorption isotherm of P-Xylene on Zn(BDC)(DABCO)0.5
DOI: 10.1016/j.micromeso.2012.01.033
Article source: Figure 6a
Adsorbate P-Xylene: InChIKey URLKBWYHVLBVBO-UHFFFAOYSA-N
Kind: experiment
Temperature: 398 K
Tabular data in the source: 0
pressure (bar)	uptake ()
0.000336	0.1759
0.004061	5.7767
0.025817	6.8515
