Adsorption isotherm of P-Xylene on Zn(BDC)(DABCO)0.5
DOI: 10.1016/j.micromeso.2012.01.033
Article source: Figure 6c
Adsorbate P-Xylene: InChIKey URLKBWYHVLBVBO-UHFFFAOYSA-N
Kind: experiment
Temperature: 448 K
Tabular data in the source: 0
pressure (bar)	uptake ()
0.000336	0.1759
0.003948	2.8125
0.026064	4.9706
