Adsorption isotherm of M-Xylene on Zn(BDC)(DABCO)0.5
DOI: 10.1016/j.micromeso.2012.01.033
Adsorbate M-Xylene: InChIKey IVSZLXZYQVIEFR-UHFFFAOYSA-N
Temperature: 423 K
Tabular data in the source: 0
pressure (bar)	uptake (mmol/g)
0.000283019	0.0788967
0.000424528	0.123981
0.000707547	0.214148
0.00113208	0.315587
0.0015566	0.371942
0.00198113	0.428296
0.00268868	0.479016
0.00410377	0.5241
0.00537736	0.546641
0.00665094	0.569183
0.00806604	0.58609
0.00933962	0.597361
0.0107547	0.602996
0.0121698	0.614267
0.0134434	0.619903
0.0148585	0.625538
0.0162736	0.631174
0.0176887	0.631174
0.0191038	0.636809
0.0203774	0.642445
0.0217925	0.642445
0.0232075	0.64808
0.0246226	0.64808
0.0260377	0.653716
0.0274528	0.653716
0.0288679	0.659351
0.0298585	0.659351
