Adsorption isotherm of M-Xylene on Zn(BDC)(DABCO)0.5
DOI: 10.1016/j.micromeso.2012.01.033
Adsorbate M-Xylene: InChIKey IVSZLXZYQVIEFR-UHFFFAOYSA-N
Temperature: 448 K
Tabular data in the source: 0
pressure (bar)	uptake (mmol/g)
0.00028169	0.0394484
0.000704225	0.0958031
0.000985915	0.140887
0.0015493	0.208513
0.00197183	0.242326
0.00253521	0.293045
0.00352113	0.338129
0.0043662	0.377577
0.00549296	0.41139
0.00661972	0.445203
0.00788732	0.462109
0.00929577	0.484651
0.0105634	0.501558
0.0119718	0.512829
0.0132394	0.5241
0.0146479	0.53537
0.0160563	0.541006
0.0173239	0.552277
0.0187324	0.557912
0.0201408	0.563548
0.0214085	0.569183
0.0228169	0.569183
0.0242254	0.574819
0.0264789	0.580454
0.0278873	0.58609
0.0292958	0.58609
