Adsorption isotherm of O-Xylene on Zn(BDC)(DABCO)0.5
DOI: 10.1016/j.micromeso.2012.01.033
Article source: Figure 3a
Adsorbate O-Xylene: InChIKey CTQNGGLPUBDAKN-UHFFFAOYSA-N
Kind: experiment
Temperature: 448 K
Tabular data in the source: 0
pressure (bar)	uptake ()
0.003101	7.973
0.006518	13.495
0.015982	16.572
0.037937	21.811
0.081775	24.012
0.103692	24.807
