Adsorption isotherm of O-Xylene on Zn(BDC)(DABCO)0.5
DOI: 10.1016/j.micromeso.2012.01.033
Adsorbate O-Xylene: InChIKey CTQNGGLPUBDAKN-UHFFFAOYSA-N
Temperature: 398 K
Tabular data in the source: 0
pressure (bar)	uptake (mmol/g)
0.000108183	0.951075
0.000578363	1.31687
0.00104438	1.64609
0.00194521	2.03018
0.00326422	2.32282
0.00629542	2.59717
0.0110305	2.78007
0.0157552	2.87151
0.0226269	2.99954
0.0312046	3.05441
0.0384945	3.09099
0.0530721	3.14586
0.0573578	3.14586
0.0607885	3.16415
0.0650742	3.16415
0.0710763	3.18244
0.075362	3.18244
0.0796477	3.18244
0.0869355	3.20073
0.0912212	3.20073
0.0955069	3.20073
0.0997926	3.20073
0.107509	3.21902
0.111795	3.21902
0.114366	3.21902
