Adsorption isotherm of M-Xylene on Zn(BDC)(DABCO)0.5
DOI: 10.1016/j.micromeso.2012.01.033
Article source: Figure 3b
Adsorbate M-Xylene: InChIKey IVSZLXZYQVIEFR-UHFFFAOYSA-N
Kind: experiment
Temperature: 423 K
Tabular data in the source: 0
pressure (bar)	uptake ()
0.003199	13.688
0.006957	19.772
0.016266	23.726
0.038247	26.616
0.08125	28.289
0.102595	28.897
