Adsorption isotherm of Ethylbenzene on Zn(BDC)(DABCO)0.5
DOI: 10.1016/j.micromeso.2012.01.033
Adsorbate Ethylbenzene: InChIKey YNQLUTRBYVCPMQ-UHFFFAOYSA-N
Temperature: 398 K
Tabular data in the source: 0
pressure (bar)	uptake (mmol/g)
0.000390879	0.746323
0.00117264	1.11047
0.00156352	1.54737
0.00234528	1.89332
0.00390879	2.23938
0.00547231	2.47624
0.00859935	2.62233
0.0117264	2.73201
0.0148534	2.82349
0.0203257	2.93353
0.0261889	2.97082
0.0328339	3.04464
0.0429967	3.08258
0.0504235	3.12011
0.0543322	3.12071
0.0570684	3.13932
0.0609772	3.13991
0.0660586	3.15889
0.0699674	3.15948
0.0734853	3.16001
0.0793485	3.1609
0.0863844	3.16197
0.0922476	3.19926
0.0961564	3.19986
0.100065	3.20045
0.103974	3.20104
0.108274	3.20169
0.114137	3.22078
