Adsorption isotherm of M-Xylene on Zn(BDC)(DABCO)0.5
DOI: 10.1016/j.micromeso.2012.01.033
Adsorbate M-Xylene: InChIKey IVSZLXZYQVIEFR-UHFFFAOYSA-N
Temperature: 448 K
Tabular data in the source: 0
pressure (bar)	uptake (mmol/g)
0.00408451	0.338129
0.0257746	0.580454
