Adsorption isotherm of M-Xylene on Zn(BDC)(DABCO)0.5
DOI: 10.1016/j.micromeso.2012.01.033
Adsorbate M-Xylene: InChIKey IVSZLXZYQVIEFR-UHFFFAOYSA-N
Temperature: 398 K
Tabular data in the source: 0
pressure (bar)	uptake (mmol/g)
0.000134221	0.067916
0.000270872	0.113193
0.0005381	0.260345
0.00108227	0.464093
0.0014983	0.543328
0.00220038	0.594265
0.0031873	0.628223
0.00445846	0.650862
0.00587234	0.662181
0.00728622	0.6735
0.0087007	0.67916
0.00997368	0.68482
0.0113882	0.690479
0.0128027	0.696139
0.0142178	0.696139
0.0156322	0.701799
0.0170473	0.701799
0.0184624	0.701799
0.0198775	0.701799
0.0211505	0.707458
0.0225656	0.707458
0.0239807	0.707458
0.0253958	0.707458
0.0261033	0.707458
0.0275178	0.713118
0.0289329	0.713118
