Adsorption isotherm of Ethylbenzene on Zn(BDC)(DABCO)0.5
DOI: 10.1016/j.micromeso.2012.01.033
Adsorbate Ethylbenzene: InChIKey YNQLUTRBYVCPMQ-UHFFFAOYSA-N
Temperature: 423 K
Tabular data in the source: 0
pressure (bar)	uptake (mmol/g)
0.000283019	0.0338129
0.000424528	0.107074
0.000707547	0.202877
0.00127358	0.293045
0.00183962	0.355035
0.00254717	0.400119
0.00353774	0.445203
0.00481132	0.47338
0.00608491	0.490287
0.0075	0.507193
0.00891509	0.518464
0.0101887	0.5241
0.0116038	0.53537
0.0130189	0.541006
0.0142925	0.546641
0.0157075	0.552277
0.0171226	0.552277
0.0185377	0.557912
0.0199528	0.563548
0.0213679	0.563548
0.022783	0.569183
0.0241981	0.569183
0.0254717	0.574819
0.0264623	0.574819
0.0278774	0.580454
0.0292925	0.580454
