Adsorption isotherm of P-Xylene on Zn(BDC)(DABCO)0.5
DOI: 10.1016/j.micromeso.2012.01.033
Adsorbate P-Xylene: InChIKey URLKBWYHVLBVBO-UHFFFAOYSA-N
Temperature: 398 K
Tabular data in the source: 0
pressure (bar)	uptake (mmol/g)
0.000134829	0.0622563
0.000408738	0.147151
0.000678395	0.271664
0.000810187	0.362219
0.0010847	0.441454
0.00164467	0.498051
0.00249008	0.532009
0.00347822	0.554647
0.00517329	0.582946
0.00701109	0.599925
0.0089898	0.622563
0.0105458	0.628223
0.0119603	0.633883
0.0133754	0.633883
0.0146484	0.639542
0.0160634	0.639542
0.0174779	0.645202
0.018893	0.645202
0.0203081	0.645202
0.0217226	0.650862
0.0231377	0.650862
0.0245528	0.650862
0.0265333	0.656521
0.0279484	0.656521
0.0293635	0.656521
