Adsorption isotherm of Ethylbenzene on Zn(BDC)(DABCO)0.5
DOI: 10.1016/j.micromeso.2012.01.033
Adsorbate Ethylbenzene: InChIKey YNQLUTRBYVCPMQ-UHFFFAOYSA-N
Temperature: 398 K
Tabular data in the source: 0
pressure (bar)	uptake (mmol/g)
0.000405701	0.17545
0.000814438	0.322601
0.00122439	0.458433
0.00178375	0.520689
0.00305187	0.571626
0.00517147	0.599925
0.00672625	0.616904
0.00828225	0.622563
0.0105458	0.628223
0.0119603	0.633883
0.0133754	0.633883
0.0146484	0.639542
0.0160634	0.639542
0.0174779	0.645202
0.018893	0.645202
0.0203081	0.645202
0.0217226	0.650862
0.0231377	0.650862
0.0245528	0.650862
0.0265333	0.656521
0.0279484	0.656521
0.0293635	0.656521
