Adsorption isotherm of P-Xylene on Zn(BDC)(DABCO)0.5
DOI: 10.1016/j.micromeso.2012.01.033
Adsorbate P-Xylene: InChIKey URLKBWYHVLBVBO-UHFFFAOYSA-N
Temperature: 448 K
Tabular data in the source: 0
pressure (bar)	uptake (mmol/g)
0.000985915	0.101439
0.00169014	0.169064
0.00239437	0.214148
0.00323944	0.259232
0.00478873	0.304316
0.00605634	0.332493
0.00732394	0.355035
0.00859155	0.371942
0.01	0.383213
0.0112676	0.394484
0.0126761	0.405754
0.0139437	0.417025
0.0153521	0.422661
0.0167606	0.428296
0.018169	0.433932
0.0195775	0.439567
0.0208451	0.445203
0.0222535	0.450838
0.023662	0.450838
0.0250704	0.456474
0.026338	0.456474
0.0277465	0.462109
0.0291549	0.462109
