Adsorption isotherm of O-Xylene on Zn(BDC)(DABCO)0.5
DOI: 10.1016/j.micromeso.2012.01.033
Article source: Figure 3a
Adsorbate O-Xylene: InChIKey CTQNGGLPUBDAKN-UHFFFAOYSA-N
Kind: experiment
Temperature: 398 K
Tabular data in the source: 0
pressure (bar)	uptake (g/100g)
0.003258	26.671
0.006647	28.821
0.016105	31.132
0.038699	32.233
0.082191	33.362
0.103768	33.849
