Adsorption isotherm of O-Xylene on Zn(BDC)(DABCO)0.5
DOI: 10.1016/j.micromeso.2012.01.033
Adsorbate O-Xylene: InChIKey CTQNGGLPUBDAKN-UHFFFAOYSA-N
Temperature: 423 K
Tabular data in the source: 0
pressure (bar)	uptake (mmol/g)
5.62e-05	0.493827
0.00183079	1.02423
0.00229473	1.33516
0.00490569	1.68267
0.00707143	1.88386
0.0096595	2.03018
0.0126741	2.15821
0.0148232	2.21308
0.0186886	2.28624
0.0264175	2.41427
0.0354258	2.48743
0.0422892	2.5423
0.0500097	2.59717
0.0603017	2.65204
0.0697323	2.67033
0.0778793	2.70691
0.0860264	2.74349
0.0903121	2.74349
0.0920284	2.76178
0.0963141	2.76178
0.106175	2.79836
0.110461	2.79836
0.114749	2.81665
