Adsorption isotherm of P-Xylene on Zn(BDC)(DABCO)0.5
DOI: 10.1016/j.micromeso.2012.01.033
Adsorbate P-Xylene: InChIKey URLKBWYHVLBVBO-UHFFFAOYSA-N
Temperature: 448 K
Tabular data in the source: 0
pressure (bar)	uptake (mmol/g)
0.000878915	0.163814
0.00306062	0.436837
0.00523401	0.637054
0.00697314	0.800868
0.00784167	0.873674
0.0104389	1.01929
0.0130362	1.1649
0.0160615	1.29231
0.0190847	1.40152
0.022538	1.51073
0.0298686	1.67454
0.0354724	1.78375
0.0445151	1.87476
0.0518373	1.96577
0.0604457	2.02037
0.0694842	2.07498
0.0768022	2.12958
0.0811054	2.14778
0.0884214	2.18419
0.0953052	2.20239
0.0991782	2.22059
0.103051	2.23879
0.109503	2.23879
0.115526	2.25699
