Adsorption isotherm of P-Xylene on Zn(BDC)(DABCO)0.5
DOI: 10.1016/j.micromeso.2012.01.033
Article source: Figure 3c
Adsorbate P-Xylene: InChIKey URLKBWYHVLBVBO-UHFFFAOYSA-N
Kind: experiment
Temperature: 448 K
Tabular data in the source: 0
pressure (bar)	uptake ()
0.003787	0
0.006234	0
0.016054	0
0.037396	0
0.080602	0
0.101518	0
