Adsorption isotherm of O-Xylene on Zn(BDC)(DABCO)0.5
DOI: 10.1016/j.micromeso.2012.01.033
Adsorbate O-Xylene: InChIKey CTQNGGLPUBDAKN-UHFFFAOYSA-N
Temperature: 398 K
Tabular data in the source: 0
pressure (bar)	uptake (mmol/g)
0.000528383	0.350899
0.000651065	0.526349
0.000921937	0.639542
0.00092801	0.582946
0.00105069	0.758395
0.00119888	0.696139
0.00132825	0.809332
0.00160519	0.865929
0.00202425	0.916866
0.00258482	0.967803
0.00385294	1.01874
0.00498198	1.04704
0.00625253	1.07534
0.00766641	1.08666
0.00893817	1.10363
0.0103521	1.11495
0.0117665	1.12061
0.0130395	1.12627
0.014454	1.13193
0.0158685	1.13759
0.017283	1.14325
0.018556	1.14891
0.0199711	1.14891
0.0213855	1.15457
0.0228006	1.15457
0.0242157	1.15457
0.0256302	1.16023
0.0270453	1.16023
0.0284604	1.16023
0.0298749	1.16589
