Adsorption isotherm of P-Xylene on Zn(BDC)(DABCO)0.5
DOI: 10.1016/j.micromeso.2012.01.033
Adsorbate P-Xylene: InChIKey URLKBWYHVLBVBO-UHFFFAOYSA-N
Temperature: 423 K
Tabular data in the source: 0
pressure (bar)	uptake (mmol/g)
0.000459197	0.254822
0.0013672	0.673457
0.002697	1.01929
0.00445068	1.31051
0.00662407	1.51073
0.0083632	1.67454
0.0100961	1.78375
0.0131214	1.91116
0.0161467	2.03857
0.0221848	2.18419
0.0299392	2.29339
0.039412	2.3844
0.0475923	2.45721
0.0536201	2.51181
0.060934	2.53001
0.0704026	2.58462
0.0772885	2.62102
0.0815895	2.62102
0.0901958	2.65743
0.0992322	2.69383
0.103533	2.69383
0.105256	2.71203
0.109557	2.71203
0.11472	2.73023
