Adsorption isotherm of P-Xylene on Zn(BDC)(DABCO)0.5
DOI: 10.1016/j.micromeso.2012.01.033
Adsorbate P-Xylene: InChIKey URLKBWYHVLBVBO-UHFFFAOYSA-N
Temperature: 398 K
Tabular data in the source: 0
pressure (bar)	uptake (mmol/g)
0.00404608	0.537668
0.0258288	0.628223
