Adsorption isotherm of M-Xylene on Zn(BDC)(DABCO)0.5
DOI: 10.1016/j.micromeso.2012.01.033
Adsorbate M-Xylene: InChIKey IVSZLXZYQVIEFR-UHFFFAOYSA-N
Temperature: 423 K
Tabular data in the source: 0
pressure (bar)	uptake (mmol/g)
0.00288715	1.27411
0.00609551	1.85656
0.0159677	2.20239
0.0376355	2.47541
0.0809332	2.65743
0.102183	2.69383
