Adsorption isotherm of Ethylbenzene on Zn(BDC)(DABCO)0.5
DOI: 10.1016/j.micromeso.2012.01.033
Article source: Figure 3d
Adsorbate Ethylbenzene: InChIKey YNQLUTRBYVCPMQ-UHFFFAOYSA-N
Kind: experiment
Temperature: 398 K
Tabular data in the source: 0
pressure (bar)	uptake ()
0.003151	23.788
0.006614	27.727
0.015942	30.909
0.038238	32.727
0.081254	34.394
0.10291	34.848
