Adsorption isotherm of M-Xylene on Zn(BDC)(DABCO)0.5
DOI: 10.1016/j.micromeso.2012.01.033
Adsorbate M-Xylene: InChIKey IVSZLXZYQVIEFR-UHFFFAOYSA-N
Temperature: 448 K
Tabular data in the source: 0
pressure (bar)	uptake (mmol/g)
0.00120694	0.254822
0.00240817	0.455039
0.00439819	0.673457
0.00519648	0.782666
0.00678736	0.94648
0.0103569	1.2195
0.0135253	1.41972
0.0174749	1.56533
0.0206339	1.67454
0.0265507	1.82015
0.0320703	1.92936
0.040344	2.03857
0.0490093	2.12958
0.0560988	2.20239
0.063578	2.23879
0.071846	2.29339
0.0797168	2.3116
0.0883782	2.3662
0.0942818	2.3844
0.0982162	2.3844
0.100185	2.4026
0.10412	2.4026
0.106876	2.42081
0.11081	2.42081
0.113958	2.42081
