Adsorption isotherm of O-Xylene on Zn(BDC)(DABCO)0.5
DOI: 10.1016/j.micromeso.2012.01.033
Adsorbate O-Xylene: InChIKey CTQNGGLPUBDAKN-UHFFFAOYSA-N
Temperature: 423 K
Tabular data in the source: 0
pressure (bar)	uptake (mmol/g)
0.000990566	0.371942
0.00113208	0.428296
0.0015566	0.541006
0.00183962	0.591725
0.00226415	0.653716
0.0029717	0.698799
0.00367925	0.749519
0.00481132	0.783332
0.0059434	0.811509
0.00721698	0.839686
0.00849057	0.856593
0.00990566	0.873499
0.0111792	0.890406
0.0125943	0.901677
0.0138679	0.912948
0.015283	0.918583
0.0166981	0.929854
0.0179717	0.935489
0.0193868	0.941125
0.0208019	0.94676
0.022217	0.958031
0.0234906	0.963667
0.0249057	0.969302
0.0263208	0.969302
0.0277358	0.974938
0.0291509	0.980573
