Adsorption isotherm of O-Xylene on Zn(BDC)(DABCO)0.5
DOI: 10.1016/j.micromeso.2012.01.033
Adsorbate O-Xylene: InChIKey CTQNGGLPUBDAKN-UHFFFAOYSA-N
Temperature: 448 K
Tabular data in the source: 0
pressure (bar)	uptake (mmol/g)
0.000451456	0.201189
0.00176214	0.420668
0.00307074	0.621857
0.00438558	0.877915
0.00655132	1.0791
0.00871706	1.28029
0.0113051	1.42661
0.0147545	1.60951
0.0207732	1.77412
0.0250693	1.86557
0.0332268	1.9936
0.0448128	2.12163
0.0508169	2.15821
0.0568232	2.21308
0.0632517	2.21308
0.0688252	2.23137
0.0786865	2.26795
0.0894071	2.32282
0.0936928	2.32282
0.0971234	2.34111
0.101409	2.34111
0.106126	2.3594
0.110411	2.3594
0.11427	2.37769
