Adsorption isotherm of Ethylbenzene on Zn(BDC)(DABCO)0.5
DOI: 10.1016/j.micromeso.2012.01.033
Adsorbate Ethylbenzene: InChIKey YNQLUTRBYVCPMQ-UHFFFAOYSA-N
Temperature: 448 K
Tabular data in the source: 0
pressure (bar)	uptake (mmol/g)
0.00117264	0.200395
0.00312704	0.455513
0.00508143	0.674228
0.00664495	0.838279
0.00820847	0.965927
0.0105537	1.1119
0.012899	1.25786
0.0171987	1.47693
0.0203257	1.58662
0.0246254	1.71468
0.0281433	1.78802
0.0343974	1.91638
0.042215	2.02677
0.0488599	2.10059
0.0547231	2.17428
0.061759	2.21175
0.0695765	2.26755
0.0781759	2.30525
0.0859935	2.34284
0.0945928	2.39875
0.0985016	2.39934
0.10241	2.41814
0.106319	2.41873
0.108664	2.43729
0.112573	2.43788
0.114919	2.43824
