Adsorption isotherm of Ethylbenzene on Zn(BDC)(DABCO)0.5
DOI: 10.1016/j.micromeso.2012.01.033
Adsorbate Ethylbenzene: InChIKey YNQLUTRBYVCPMQ-UHFFFAOYSA-N
Temperature: 423 K
Tabular data in the source: 0
pressure (bar)	uptake (mmol/g)
0.000781759	0.25494
0.00156352	0.728299
0.00273616	1.0561
0.00429967	1.40217
0.00664495	1.65735
0.00938111	1.87618
0.0121173	2.04041
0.0148534	2.15004
0.0171987	2.2232
0.0207166	2.29654
0.0265798	2.40664
0.0332248	2.48045
0.0398697	2.53606
0.0484691	2.61017
0.0562866	2.64776
0.0644951	2.68541
0.0711401	2.72282
0.0750489	2.72341
0.0762215	2.74179
0.0801303	2.72418
0.0816938	2.76082
0.0856026	2.76142
0.0887296	2.78009
0.0926384	2.78069
0.0957655	2.79936
0.0996743	2.79996
0.103192	2.81869
0.10671	2.81922
0.114137	2.83855
