Adsorption isotherm of Ethylbenzene on Zn(BDC)(DABCO)0.5
DOI: 10.1016/j.micromeso.2012.01.033
Article source: Figure 6c
Adsorbate Ethylbenzene: InChIKey YNQLUTRBYVCPMQ-UHFFFAOYSA-N
Kind: experiment
Temperature: 448 K
Tabular data in the source: 0
pressure (bar)	uptake ()
0.000336	0.1759
0.004063	3.0027
0.025957	5.255
