Adsorption isotherm of P-Xylene on Zn(BDC)(DABCO)0.5
DOI: 10.1016/j.micromeso.2012.01.033
Adsorbate P-Xylene: InChIKey URLKBWYHVLBVBO-UHFFFAOYSA-N
Temperature: 398 K
Tabular data in the source: 0
pressure (bar)	uptake (mmol/g)
8.52e-05	0.746263
0.00143161	1.23771
0.00189704	1.54713
0.00279258	1.85656
0.00367981	2.09318
0.00542102	2.27519
0.00759026	2.43901
0.0101875	2.58462
0.014073	2.71203
0.01709	2.76663
0.0239863	2.89405
0.0308742	2.94865
0.0377622	3.00326
0.0485211	3.05786
0.0584177	3.09426
0.0627188	3.09426
0.0648714	3.11246
0.0691725	3.11246
0.0734757	3.13067
0.0777767	3.13067
0.0820778	3.13067
0.0846605	3.14887
0.0889616	3.14887
0.0932627	3.14887
0.0984261	3.16707
0.102727	3.16707
0.107028	3.16707
0.111329	3.16707
0.11477	3.16707
