Adsorption isotherm of P-Xylene on Zn(BDC)(DABCO)0.5
DOI: 10.1016/j.micromeso.2012.01.033
Adsorbate P-Xylene: InChIKey URLKBWYHVLBVBO-UHFFFAOYSA-N
Temperature: 423 K
Tabular data in the source: 0
pressure (bar)	uptake (mmol/g)
0.000283019	0.0450838
0.000424528	0.101439
0.000849057	0.191606
0.00127358	0.281774
0.00198113	0.338129
0.00283019	0.383213
0.00382075	0.417025
0.00495283	0.439567
0.00622642	0.456474
0.00764151	0.467745
0.00891509	0.484651
0.0103302	0.490287
0.0117453	0.501558
0.0130189	0.507193
0.014434	0.512829
0.0158491	0.518464
0.0172642	0.5241
0.0185377	0.529735
0.0199528	0.53537
0.0213679	0.541006
0.022783	0.546641
0.0241981	0.546641
0.0266038	0.552277
0.0280189	0.557912
0.029434	0.563548
