Adsorption isotherm of Ethylbenzene on Zn(BDC)(DABCO)0.5
DOI: 10.1016/j.micromeso.2012.01.033
Adsorbate Ethylbenzene: InChIKey YNQLUTRBYVCPMQ-UHFFFAOYSA-N
Temperature: 448 K
Tabular data in the source: 0
pressure (bar)	uptake (mmol/g)
0.00028169	0.0225419
0.00056338	0.0676257
0.000985915	0.123981
0.0015493	0.180335
0.00225352	0.231055
0.00309859	0.276138
0.00478873	0.338129
0.00591549	0.371942
0.0071831	0.394484
0.00859155	0.41139
0.00985915	0.428296
0.0111268	0.439567
0.0125352	0.450838
0.0139437	0.462109
0.0152113	0.467745
0.0166197	0.47338
0.0180282	0.484651
0.0192958	0.490287
0.0207042	0.490287
0.0221127	0.495922
0.0235211	0.501558
0.0249296	0.501558
0.0264789	0.507193
0.0278873	0.507193
0.0292958	0.512829
