Adsorption isotherm of O-Xylene on Zn(BDC)(DABCO)0.5
DOI: 10.1016/j.micromeso.2012.01.033
Adsorbate O-Xylene: InChIKey CTQNGGLPUBDAKN-UHFFFAOYSA-N
Temperature: 448 K
Tabular data in the source: 0
pressure (bar)	uptake (mmol/g)
0.000422535	0.0788967
0.00084507	0.157793
0.00112676	0.202877
0.00140845	0.259232
0.00183099	0.309951
0.00225352	0.377577
0.0028169	0.422661
0.00352113	0.467745
0.00408451	0.501558
0.00492958	0.546641
0.00591549	0.58609
0.00704225	0.619903
0.00816901	0.64808
0.00943662	0.676257
0.0108451	0.693164
0.0121127	0.715706
0.0135211	0.726977
0.0147887	0.743883
0.0161972	0.755154
0.0174648	0.76079
0.0188732	0.772061
0.0202817	0.777696
0.0215493	0.788967
0.0229577	0.794602
0.0243662	0.800238
0.0256338	0.805873
0.0266197	0.805873
0.0280282	0.811509
0.0294366	0.817144
