Adsorption isotherm of M-Xylene on Zn(BDC)(DABCO)0.5
DOI: 10.1016/j.micromeso.2012.01.033
Adsorbate M-Xylene: InChIKey IVSZLXZYQVIEFR-UHFFFAOYSA-N
Temperature: 398 K
Tabular data in the source: 0
pressure (bar)	uptake (mmol/g)
0.00338323	2.25699
0.00616774	2.54822
0.0160418	2.91225
0.0376964	3.05786
0.0802015	3.18527
0.101843	3.20347
