Adsorption isotherm of Nitrogen on Ni@C 900 nanocomposite
DOI: 10.1016/j.apsusc.2015.10.215
Article source: Figure 4b
Adsorbate Nitrogen: InChIKey IJGRMHOSHXDMSA-UHFFFAOYSA-N
Kind: experiment
Temperature: 77 K
Tabular data in the source: 0
pressure (bar)	uptake (cm3(STP)/g)
0.024025	21.2289
0.049673	24.7821
0.073601	26.213
0.095818	26.9356
0.124873	28.37
0.15051	29.802
0.176143	30.527
0.201785	32.6661
0.227418	33.391
0.251347	34.8219
0.27698	35.5468
0.302621	37.6859
0.328254	38.4109
0.353892	39.8429
0.379529	41.2749
0.405166	42.707
0.429095	44.1378
0.456442	45.571
0.482079	47.0031
0.506007	48.4339
0.529939	50.5718
0.557285	52.005
0.581213	53.4359
0.603434	54.8655
0.632495	57.7141
0.658139	60.5603
0.68378	62.6994
0.707716	65.5444
0.735068	68.3917
0.735082	71.22
0.759007	71.9438
0.760737	76.1874
0.782977	81.8595
0.784659	76.2041
0.80866	92.4835
0.810319	82.5857
0.832657	108.056
0.83428	90.3802
0.859958	100.297
0.861805	128.581
0.883955	115.869
0.885864	156.881
0.909724	144.17
0.91164	186.596
0.937253	183.078
0.937384	209.947
0.963045	216.329
0.964864	238.956
0.988859	253.821
0.989011	284.933
1.0081	345.047
