Adsorption isotherm of Nitrogen on Ni@C 420 nanocomposite
DOI: 10.1016/j.apsusc.2015.10.215
Article source: Figure 4a
Adsorbate Nitrogen: InChIKey IJGRMHOSHXDMSA-UHFFFAOYSA-N
Kind: experiment
Temperature: 77 K
Tabular data in the source: 0
pressure (bar)	uptake (cm3(STP)/g)
0.023975	22.054
0.049573	24.6177
0.075164	25.4866
0.099053	27.2015
0.128059	28.9207
0.151944	29.7881
0.175829	30.6555
0.20142	31.5244
0.225308	33.2393
0.254311	34.111
0.278196	34.9784
0.305496	36.6962
0.329381	37.5636
0.35327	39.2785
0.380567	40.1488
0.404459	42.7112
0.428343	43.5786
0.45564	44.4489
0.481242	47.8601
0.482937	45.3192
0.506826	47.0341
0.50684	50.4239
0.530714	48.749
0.530728	52.1388
0.558014	50.4667
0.558025	53.0091
0.581903	52.1816
0.581918	55.5714
0.607497	53.8979
0.607508	56.4403
0.631397	58.1552
0.634798	55.6157
0.656998	61.5664
0.658691	58.178
0.682582	60.7404
0.682597	64.1302
0.708181	63.3042
0.708195	66.694
0.733778	65.868
0.7338	70.9527
0.759383	70.1267
0.761111	75.2128
0.785022	82.0125
0.786701	76.0817
0.808899	81.185
0.808939	90.5071
0.834516	87.9861
0.834577	102.393
0.860146	98.177
0.860247	121.906
0.887501	112.607
0.887667	151.59
0.906568	183.809
0.909788	138.897
0.935524	173.664
0.937323	195.699
0.96295	205.043
0.963066	232.161
0.990439	250.828
0.990709	314.388
1.00819	414.403
