Adsorption isotherm of Carbon Dioxide on Carbon
DOI: 10.5012/bkcs.2014.35.2.377
Adsorbate Carbon Dioxide: InChIKey CURLTUGMZLYLDI-UHFFFAOYSA-N
Temperature: 298 K
Tabular data in the source: 0
pressure (bar)	uptake (cm3(STP)/g)
0.0112524	2.03183
0.0732242	11.1586
0.152097	18.9332
0.247872	26.0318
0.368999	31.1023
0.473224	35.1586
0.57745	39.2149
0.67745	41.9192
0.770407	44.2854
0.871816	46.9896
0.976041	48.6797
