Adsorption isotherm of Carbon Dioxide on Carbon
DOI: 10.5012/bkcs.2014.35.2.377
Adsorbate Carbon Dioxide: InChIKey CURLTUGMZLYLDI-UHFFFAOYSA-N
Temperature: 196 K
Tabular data in the source: 0
pressure (bar)	uptake (cm3(STP)/g)
0.00280166	6.08817
0.00702701	35.1586
0.00843546	60.8487
0.02252	85.5248
0.0450552	104.454
0.102802	122.032
0.15914	134.877
0.242238	145.356
0.35914	156.849
0.461957	167.328
0.563365	176.116
0.661957	183.215
0.763365	190.99
0.85914	197.074
0.994351	204.173
