Adsorption isotherm of Nitrogen on Carbon
DOI: 10.5012/bkcs.2014.35.2.377
Adsorbate Nitrogen: InChIKey IJGRMHOSHXDMSA-UHFFFAOYSA-N
Temperature: 77 K
Tabular data in the source: 0
pressure (bar)	uptake (cm3(STP)/g)
0.00658518	7.32115
0.00944547	76.3971
0.0123058	101.925
0.0323278	120.445
0.085243	131.458
0.189643	141.969
0.314066	151.98
0.412746	156.485
0.509996	160.99
0.612966	164.994
0.75312	172.503
0.85323	183.014
0.930458	199.032
0.979082	214.048
