Adsorption isotherm of Carbon Dioxide on Carbon
DOI: 10.5012/bkcs.2014.35.2.377
Adsorbate Carbon Dioxide: InChIKey CURLTUGMZLYLDI-UHFFFAOYSA-N
Temperature: 273 K
Tabular data in the source: 0
pressure (bar)	uptake (cm3(STP)/g)
0.00702701	5.75014
0.0464636	17.9192
0.0929425	27.3839
0.146464	35.1586
0.221112	41.2431
0.321112	47.6656
0.473224	56.4544
0.573224	59.8346
0.670407	63.891
0.773224	67.9473
0.871816	69.9755
0.971816	71.6656
