Adsorption isotherm of Hydrogen on Carbon
DOI: 10.5012/bkcs.2014.35.2.377
Adsorbate Hydrogen: InChIKey UFHFLCQGNIYNRP-UHFFFAOYSA-N
Temperature: 77 K
Tabular data in the source: 0
pressure (bar)	uptake (mg/g)
0.00139321	0.811512
0.00843546	3.53827
0.0182946	4.68757
0.0563228	6.37771
0.112661	7.66222
0.163365	8.24813
0.246464	8.90165
0.368999	9.62278
0.468999	9.98334
0.621112	10.4791
0.716886	10.7495
0.819703	10.9524
0.918295	11.1552
0.966182	11.2453
