Adsorption isotherm of Carbon Dioxide on Carbon
DOI: 10.5012/bkcs.2014.35.2.377
Adsorbate Carbon Dioxide: InChIKey CURLTUGMZLYLDI-UHFFFAOYSA-N
Temperature: 273 K
Tabular data in the source: 0
pressure (bar)	uptake (cm3(STP)/g)
0.00984391	4.73605
0.0253369	12.8487
0.0675904	23.3276
0.125337	33.4684
0.20421	40.229
0.30421	46.9896
0.376041	51.3839
0.476041	55.4403
0.574633	59.4966
0.676041	62.2008
0.771816	64.567
0.873224	66.5952
0.974633	68.2853
