Adsorption isotherm of Hydrogen on Carbon
DOI: 10.5012/bkcs.2014.35.2.377
Adsorbate Hydrogen: InChIKey UFHFLCQGNIYNRP-UHFFFAOYSA-N
Temperature: 77 K
Tabular data in the source: 0
pressure (bar)	uptake (mg/g)
0.00421011	0.653765
0.00984391	2.18616
0.0126608	3.53827
0.0239284	4.6425
0.0619566	6.35517
0.112661	7.61715
0.190126	8.58616
0.271816	9.39743
0.366182	10.0059
0.518295	10.7045
0.666182	11.2228
0.770407	11.5383
0.870407	11.8087
0.970407	11.989
