Adsorption isotherm of Nitrogen on Carbon
DOI: 10.5012/bkcs.2014.35.2.377
Adsorbate Nitrogen: InChIKey IJGRMHOSHXDMSA-UHFFFAOYSA-N
Temperature: 77 K
Tabular data in the source: 0
pressure (bar)	uptake (cm3(STP)/g)
0.00801532	112.437
0.0108756	5.8195
0.0108756	77.3982
0.0165962	141.969
0.0208866	155.985
0.035188	166.997
0.0480593	171.502
0.113846	183.515
0.192504	198.031
0.318356	213.047
0.462801	225.561
0.561481	231.568
0.660161	239.576
0.75455	246.584
0.841789	258.597
0.890414	267.607
0.941899	286.628
0.976222	307.151
