Adsorption isotherm of Carbon Dioxide on Carbon
DOI: 10.5012/bkcs.2014.35.2.377
Adsorbate Carbon Dioxide: InChIKey CURLTUGMZLYLDI-UHFFFAOYSA-N
Temperature: 298 K
Tabular data in the source: 0
pressure (bar)	uptake (cm3(STP)/g)
0.0168862	3.38394
0.0704073	12.5107
0.150689	20.2853
0.250689	27.3839
0.373224	32.7924
0.480266	36.8487
0.576041	40.229
0.67745	42.9332
0.778858	44.9614
0.876041	46.9896
0.978858	48.6797
