Adsorption isotherm of Carbon Dioxide on Carbon
DOI: 10.5012/bkcs.2014.35.2.377
Adsorbate Carbon Dioxide: InChIKey CURLTUGMZLYLDI-UHFFFAOYSA-N
Temperature: 196 K
Tabular data in the source: 0
pressure (bar)	uptake (cm3(STP)/g)
0.00421011	8.11633
0.00702701	36.5107
0.00984391	49.3558
0.0126608	60.5107
0.0295622	84.1727
0.0619566	98.7079
0.121112	108.511
0.22252	118.314
0.36759	128.454
0.471816	131.835
0.568999	137.243
0.668999	142.652
0.773224	147.722
0.86759	151.44
0.968999	154.821
