Adsorption isotherm of Nitrogen on IRMOF-3-PI-Pd
DOI: 10.1021/La304147j
Adsorbate Nitrogen: InChIKey IJGRMHOSHXDMSA-UHFFFAOYSA-N
Temperature: 77 K
Tabular data in the source: 0
pressure (bar)	uptake (cm3(STP)/g)
0.0245484	206.186
0.0512921	209.332
0.104779	214.195
0.175572	218.771
0.230632	221.345
0.299851	225.922
0.380082	229.64
0.452447	232.786
0.527959	236.791
0.600324	239.937
0.678982	242.797
0.729323	246.802
0.806408	250.234
0.878773	253.38
0.93226	259.101
0.951138	260.817
0.999906	273.402
