Adsorption isotherm of Nitrogen on IRMOF-3-PI
DOI: 10.1021/La304147j
Adsorbate Nitrogen: InChIKey IJGRMHOSHXDMSA-UHFFFAOYSA-N
Temperature: 77 K
Tabular data in the source: 0
pressure (bar)	uptake (cm3(STP)/g)
0.0261216	217.341
0.0764626	225.064
0.150401	231.642
0.224339	236.505
0.276254	239.079
0.328168	241.653
0.400533	244.8
0.452447	246.802
0.527959	249.948
0.579873	251.95
0.653811	254.239
0.702579	255.669
0.778091	259.673
0.828432	262.533
0.878773	265.394
0.930687	271.972
0.952711	277.121
0.976309	286.56
0.99676	306.868
