Adsorption isotherm of Nitrogen on IRMOF-3-PI-Pd
DOI: 10.1021/La304147j
Adsorbate Nitrogen: InChIKey IJGRMHOSHXDMSA-UHFFFAOYSA-N
Temperature: 77 K
Tabular data in the source: 0
pressure (bar)	uptake (cm3(STP)/g)
0.0239284	207.353
0.0535059	210.142
0.0746326	212.085
0.133788	215.888
0.230971	220.114
0.280266	222.733
0.328154	224.677
0.40421	227.55
0.480266	230.761
0.529562	232.79
0.584492	234.48
0.635196	236.677
0.705619	239.297
0.814069	243.353
0.87745	246.226
0.902802	248.339
0.94083	251.466
0.983083	256.536
0.995759	262.874
