Adsorption isotherm of Nitrogen on IRMOF-3-PI-Pd
DOI: 10.1021/La304147j
Adsorbate Nitrogen: InChIKey IJGRMHOSHXDMSA-UHFFFAOYSA-N
Temperature: 77 K
Tabular data in the source: 0
pressure (bar)	uptake (cm3(STP)/g)
0.0281538	208.959
0.0774495	212.339
0.125337	214.536
0.202802	216.902
0.252097	218.339
0.30421	220.029
0.350689	221.804
0.425337	224.677
0.50421	227.973
0.578858	232.029
0.654914	236.001
0.730971	238.874
0.801393	242.17
0.826745	242.761
0.856323	243.691
0.90421	246.818
0.954914	251.381
0.981675	255.522
0.997168	266.254
