Adsorption isotherm of Nitrogen on IRMOF-3-PI-Pd
DOI: 10.1021/La304147j
Adsorbate Nitrogen: InChIKey IJGRMHOSHXDMSA-UHFFFAOYSA-N
Temperature: 77 K
Tabular data in the source: 0
pressure (bar)	uptake (cm3(STP)/g)
0.02252	207.015
0.0535059	210.057
0.115478	214.367
0.209844	219.1
0.280266	222.311
0.326745	224.592
0.37745	226.79
0.426745	228.564
0.478858	230.508
0.554914	233.466
0.626745	235.916
0.680266	237.691
0.728154	240.649
0.778858	242.761
0.880266	246.649
0.90421	247.832
0.930971	250.621
0.952097	252.395
0.981675	256.452
0.995759	262.536
