Adsorption isotherm of Nitrogen on IRMOF-3-PI-Pd
DOI: 10.1021/La304147j
Adsorbate Nitrogen: InChIKey IJGRMHOSHXDMSA-UHFFFAOYSA-N
Temperature: 77 K
Tabular data in the source: 0
pressure (bar)	uptake (cm3(STP)/g)
0.0211115	207.776
0.050689	210.564
0.0971678	213.438
0.147872	215.973
0.218295	218.677
0.299985	220.536
0.349281	223.24
0.425337	224.761
0.526745	226.452
0.552097	229.494
0.625337	231.776
0.698576	233.804
0.752097	235.494
0.781675	238.705
0.828154	240.733
0.899985	244.367
0.950689	247.916
0.974633	252.311
0.999985	264.987
