Adsorption isotherm of Nitrogen on IRMOF-3
DOI: 10.1021/La304147j
Adsorbate Nitrogen: InChIKey IJGRMHOSHXDMSA-UHFFFAOYSA-N
Temperature: 77 K
Tabular data in the source: 0
pressure (bar)	uptake (cm3(STP)/g)
0.0261216	287.132
0.0780358	292.28
0.15512	296.285
0.229059	298.573
0.299851	300.575
0.375363	301.719
0.452447	304.58
0.524812	306.01
0.631787	308.584
0.724603	312.302
0.779664	314.018
0.852029	318.595
0.905517	323.457
0.927541	329.464
0.955858	336.901
0.979455	356.637
0.99676	415.559
