Adsorption isotherm of Argon on Al-Fumarate
DOI: 10.1007/s10450-016-9847-0
Article source: Figure 4
Adsorbate Argon: InChIKey XKRFYHLGVUSROY-UHFFFAOYSA-N
Kind: experiment
Isotherm type: excess
Temperature: 87 K
Tabular data in the source: 0
pressure (bar)	uptake (ml/g)
0.000616	0.011726
0.001232	0.022476
0.001232	0.039088
0.000616	0.051792
0.000616	0.063518
0.000616	0.08013
0.000616	0.100651
0.000616	0.124104
0.000616	0.142671
0.001232	0.164169
0.001232	0.183713
0.000616	0.200326
0.000616	0.213029
0.000616	0.223779
0.001232	0.230619
0.000616	0.239414
0.000616	0.245277
0.000616	0.25114
0.001232	0.264821
0.00308	0.272638
0.001848	0.284365
0.004312	0.288274
0.007391	0.291205
0.010471	0.296091
0.012319	0.3
0.018479	0.303909
0.024638	0.307818
0.051124	0.315635
0.060364	0.318567
0.071451	0.322476
0.084386	0.325407
0.100401	0.328339
0.12196	0.332248
0.166924	0.338111
0.214969	0.343974
0.261166	0.351792
0.307363	0.358632
0.355407	0.36645
0.403452	0.372313
0.449033	0.38013
0.497078	0.385993
0.542659	0.388925
0.588855	0.394788
0.6369	0.402606
0.684945	0.408469
0.729294	0.420195
0.776722	0.425081
0.825383	0.431922
0.870964	0.441694
0.919009	0.447557
0.967669	0.455375
1.0114	0.471987
