Adsorption isotherm of Ethene on Al-Fumarate
DOI: 10.1007/s10450-016-9847-0
Article source: Figure 2
Adsorbate Ethene: InChIKey VGGSQFUCUMXWEO-UHFFFAOYSA-N
Kind: experiment
Isotherm type: excess
Temperature: 303 K
Tabular data in the source: 0
pressure (bar)	uptake (molecules/unitcell)
0.001302	0.100616
0.002604	0.300479
0.004773	0.437372
0.004773	0.520876
0.006509	0.580424
0.008679	0.622861
0.011282	0.657084
0.009981	0.684463
0.012584	0.70705
0.01432	0.726899
0.026904	0.837782
0.04079	0.889802
0.066827	0.941136
0.099372	0.974675
0.133654	0.986995
0.199612	0.999316
