Adsorption isotherm of Water on MIL-140C
DOI: 10.1007/s10450-016-9847-0
Article source: Figure 2
Adsorbate Water: InChIKey XLYOFNOQVPJJNP-UHFFFAOYSA-N
Kind: experiment
Isotherm type: excess
Temperature: 303 K
Tabular data in the source: 0
pressure (bar)	uptake (g/g)
0	0.001908
0.004285	0.002672
0.006362	0.002672
0.008495	0.00229
0.012762	0.00458
0.017084	0.003817
0.021276	0.007252
0.023483	0.008779
0.025579	0.012595
0.027694	0.016794
0.029864	0.022901
0.032016	0.033969
0.034093	0.062595
0.036282	0.138168
0.038378	0.159542
