Adsorption isotherm of Water on Al-Fumarate
DOI: 10.1007/s10450-016-9847-0
Article source: Figure 2
Adsorbate Water: InChIKey XLYOFNOQVPJJNP-UHFFFAOYSA-N
Kind: experiment
Isotherm type: excess
Temperature: 303 K
Tabular data in the source: 0
pressure (bar)	uptake (g/g)
1.9e-05	0.00687
7.4e-05	0.014885
0.000148	0.020992
0.000223	0.025954
0.00039	0.032824
0.000594	0.037023
0.00128	0.041221
0.001985	0.044656
0.002486	0.045802
0.003339	0.050763
0.004211	0.054198
0.006381	0.065267
0.008792	0.11145
0.010369	0.127481
0.012799	0.258779
0.017102	0.379389
0.025598	0.414504
0.031997	0.420992
0.034093	0.430534
0.036301	0.450382
0.038397	0.489313
0.040474	0.541985
