Adsorption isotherm of Argon on Al-Fumarate
DOI: 10.1007/s10450-016-9847-0
Article source: Figure 2
Adsorbate Argon: InChIKey XKRFYHLGVUSROY-UHFFFAOYSA-N
Kind: experiment
Isotherm type: excess
Temperature: 87 K
Tabular data in the source: 0
pressure (bar)	uptake (molecules/unitcell)
0.001736	0.009582
0.001736	0.023272
0.003038	0.039014
0.003038	0.043806
0.002604	0.063655
0.002604	0.078029
0.001736	0.1013
0.001736	0.127995
0.001302	0.167009
0.003038	0.213552
0.00217	0.264203
0.003905	0.303901
0.003038	0.346338
0.001736	0.389459
0.00217	0.427105
0.003038	0.454483
0.003905	0.476386
0.003472	0.49692
0.003905	0.511294
0.003905	0.531143
0.003038	0.543463
0.003038	0.554415
0.003038	0.566051
0.003038	0.574949
0.003038	0.583847
0.005641	0.59822
0.007377	0.609172
0.010849	0.620123
0.016924	0.640657
0.028206	0.655715
0.054243	0.672142
0.062921	0.676934
0.0716	0.681725
0.08375	0.688569
0.100674	0.692676
0.122371	0.703628
0.168803	0.715264
0.21697	0.731691
0.2621	0.747433
0.308965	0.761807
0.358001	0.774812
0.404866	0.790554
0.450864	0.80219
0.497295	0.816564
0.545029	0.829569
0.591026	0.84052
0.637458	0.856263
0.68389	0.867214
0.729019	0.889802
0.777187	0.901437
0.824052	0.917864
0.872219	0.934292
0.917349	0.951403
0.965083	0.965777
1.01151	1.00068
