Adsorption isotherm of Carbon Dioxide on Al-Fumarate
DOI: 10.1007/s10450-016-9847-0
Article source: Figure 2
Adsorbate Carbon Dioxide: InChIKey CURLTUGMZLYLDI-UHFFFAOYSA-N
Kind: experiment
Isotherm type: excess
Temperature: 303 K
Tabular data in the source: 0
pressure (bar)	uptake (molecules/unitcell)
0.154486	0.097194
0.463458	0.18412
0.525253	0.213552
0.587047	0.242984
0.710636	0.290897
0.679739	0.321697
0.896019	0.352498
0.957814	0.383299
1.17409	0.407255
2.07011	0.577687
5.09804	0.774812
10.1961	0.889802
15.2323	0.94319
20.1141	0.976044
25.1812	0.991102
30.2484	0.999316
