Adsorption isotherm of Water on Al-Fumarate
DOI: 10.1007/s10450-016-9847-0
Article source: Figure 4
Adsorbate Water: InChIKey XLYOFNOQVPJJNP-UHFFFAOYSA-N
Kind: experiment
Isotherm type: excess
Temperature: 303 K
Tabular data in the source: 0
pressure (bar)	uptake (ml/g)
2.6e-05	0.000977
2.6e-05	0.007818
7.7e-05	0.015635
0.000181	0.019544
0.000336	0.029316
0.000516	0.036156
0.000645	0.036156
0.001213	0.039088
0.001962	0.04202
0.002478	0.045928
0.00333	0.04886
0.00426	0.051792
0.006351	0.065472
0.008752	0.109446
0.010327	0.128013
0.012728	0.258958
0.01704	0.381107
0.025482	0.414332
0.031885	0.423127
0.03395	0.430945
0.036041	0.448534
0.038262	0.485668
0.040353	0.542345
