Adsorption isotherm of Water on CuBTC
DOI: 10.1007/s10450-016-9847-0
Article source: Figure 2
Adsorbate Water: InChIKey XLYOFNOQVPJJNP-UHFFFAOYSA-N
Kind: experiment
Isotherm type: excess
Temperature: 303 K
Tabular data in the source: 0
pressure (bar)	uptake (g/g)
0	0.00229
0.000111	0.01374
0.000204	0.021374
0.000334	0.029771
0.004322	0.291603
0.008533	0.439695
0.01278	0.498092
0.017102	0.51374
0.025579	0.546947
0.034093	0.570992
