Adsorption isotherm of Hydrogen on C32H26Cl4N4O4Rh2
DOI: 10.1021/Cg800987f
Adsorbate Hydrogen: InChIKey UFHFLCQGNIYNRP-UHFFFAOYSA-N
Temperature: 77 K
Tabular data in the source: 0
pressure (bar)	uptake (cm3(STP)/g)
0.0125782	0.607941
0.04724	1.3707
0.0661551	1.67656
0.0913712	2.13488
0.103926	3.04584
0.113323	3.95634
0.166888	5.17647
0.214104	6.8502
0.267669	8.07033
0.314909	9.44103
0.365306	10.8122
0.415702	12.1834
0.469219	14.0096
0.516435	15.6833
0.569905	18.1155
0.617073	20.3953
0.667374	22.9786
0.720891	24.8048
0.771251	26.6305
0.821636	28.1532
0.872008	29.8274
0.922357	31.8046
0.975958	32.5702
