Adsorption isotherm of Nitrogen on C32H26Cl4N4O4Rh2
DOI: 10.1021/Cg800987f
Adsorbate Nitrogen: InChIKey IJGRMHOSHXDMSA-UHFFFAOYSA-N
Temperature: 77 K
Tabular data in the source: 0
pressure (bar)	uptake (cm3(STP)/g)
0.0409748	0.763703
0.0661312	1.97959
0.0818539	2.73951
0.0912756	3.34698
0.103818	4.40946
0.113204	5.47147
0.311848	8.22845
0.412737	9.75869
0.513614	11.4404
0.614502	12.9707
0.718535	14.6529
0.819448	15.8801
0.917252	16.5008
1.01192	16.818
