Adsorption isotherm of Carbon Dioxide on MIL-53(Al)sol.ht
DOI: 10.1007/s10934-010-9371-7
Adsorbate Carbon Dioxide: InChIKey CURLTUGMZLYLDI-UHFFFAOYSA-N
Temperature: 288 K
Tabular data in the source: 0
pressure (bar)	uptake (cm3(STP)/g)
0.0131185	0.877517
0.0393536	2.5447
0.0642961	5.00261
0.0985116	12.2036
0.115646	17.034
0.142041	25.9925
0.176283	34.4234
0.203876	38.2867
0.260293	42.4114
0.304881	44.6922
0.362558	46.5328
0.403193	47.7596
0.456925	48.8977
0.514582	49.772
0.568306	50.5587
0.625962	51.4329
0.683617	52.2194
0.737335	52.7425
0.794988	53.4411
0.850017	53.9641
0.907665	54.487
0.966622	54.9219
1.02296	55.4449
1.0793	55.9678
1.11991	56.2284
1.1304	56.4033
