Adsorption isotherm of Argon on MIL-53(Al)sol.ht
DOI: 10.1007/s10934-010-9371-7
Adsorbate Argon: InChIKey XKRFYHLGVUSROY-UHFFFAOYSA-N
Temperature: 303 K
Tabular data in the source: 0
pressure (bar)	uptake (cm3(STP)/g)
0.135631	0.41839
0.179971	0.584423
0.203446	0.667614
0.226922	0.670747
0.282998	0.918404
0.340381	1.08618
0.397762	1.33401
0.452536	1.50144
0.508614	1.66903
0.567301	1.83698
0.622075	2.00441
0.685975	2.33317
0.735532	2.4999
0.794219	2.66784
0.852902	2.99591
0.907678	3.08328
0.965057	3.41117
1.02114	3.49871
1.07852	3.66648
1.11243	3.83112
1.12938	3.9935
