Adsorption isotherm of Nitrogen on MIL-53(Al)sol.ht
DOI: 10.1007/s10934-010-9371-7
Adsorbate Nitrogen: InChIKey IJGRMHOSHXDMSA-UHFFFAOYSA-N
Temperature: 77 K
Tabular data in the source: 0
pressure (bar)	uptake (cm3(STP)/g)
0.00108308	325.444
0.00216615	342.012
0.0162461	357.396
0.0303262	360.947
0.0617354	363.905
0.0898954	366.272
0.103975	366.864
0.127803	368.639
0.18304	369.231
0.248024	372.189
0.301095	372.781
0.350917	373.373
0.398572	373.373
0.497133	375.74
0.546954	375.74
0.595692	376.331
0.698585	377.515
0.74624	378.107
0.796062	378.107
0.845883	379.29
0.870794	379.29
0.895705	380.473
0.946609	381.657
0.980186	386.391
0.991018	391.716
