Adsorption isotherm of Carbon Dioxide on MIL-53(Al)sol.ht
DOI: 10.1007/s10934-010-9371-7
Adsorbate Carbon Dioxide: InChIKey CURLTUGMZLYLDI-UHFFFAOYSA-N
Temperature: 303 K
Tabular data in the source: 0
pressure (bar)	uptake (cm3(STP)/g)
0.0325793	1.12516
0.0703661	2.65131
0.0886045	3.53439
0.113362	4.49839
0.136814	5.54227
0.158955	6.82616
0.179785	8.4301
0.201914	10.2744
0.225339	12.4391
0.294249	21.4949
0.337142	27.6651
0.402191	34.5588
0.450362	38.1678
0.506378	40.9773
0.565019	43.0667
0.621065	44.5952
0.681032	45.8041
0.735785	46.8522
0.793152	47.6604
0.849215	48.4685
0.907889	49.1968
0.963956	49.8448
1.01872	50.3324
1.0774	50.9007
1.11521	51.306
1.13086	51.6283
