Adsorption isotherm of Argon on MIL-53(Al)sol.ht
DOI: 10.1007/s10934-010-9371-7
Adsorbate Argon: InChIKey XKRFYHLGVUSROY-UHFFFAOYSA-N
Temperature: 288 K
Tabular data in the source: 0
pressure (bar)	uptake (cm3(STP)/g)
0.0772098	0.362696
0.113854	0.631605
0.136101	0.72271
0.159656	0.814007
0.183213	0.993152
0.202838	0.908178
0.226399	1.26302
0.281361	1.44676
0.344179	1.8952
0.401759	2.16717
0.451488	2.438
0.510379	2.79801
0.56534	2.98176
0.625539	3.34196
0.679194	3.61336
0.735466	3.88514
0.795663	4.1575
0.853245	4.51732
0.9069	4.78872
0.961859	4.88462
1.01814	5.3321
1.07702	5.60426
1.11236	5.78513
1.12806	5.87528
