Adsorption isotherm of Methane on MIL-53(Al)sol.ht
DOI: 10.1007/s10934-010-9371-7
Adsorbate Methane: InChIKey VNWKTOKETHGBQD-UHFFFAOYSA-N
Temperature: 288 K
Tabular data in the source: 0
pressure (bar)	uptake (cm3(STP)/g)
0.159841	1.30601
0.205696	1.65405
0.224041	1.91625
0.286925	2.26303
0.341954	2.78609
0.399599	3.13326
0.454628	3.65632
0.510964	4.09143
0.568613	4.6143
0.626262	5.13717
0.682598	5.57228
0.737625	6.00749
0.795272	6.44251
0.852922	7.05322
0.906635	7.31283
0.965594	7.8356
1.02193	8.27072
1.08089	8.79349
1.11888	9.1421
1.13067	9.14123
