Adsorption isotherm of Oxygen on MIL-53(Al)sol.ht
DOI: 10.1007/s10934-010-9371-7
Adsorbate Oxygen: InChIKey MYMOFIZGZYHOMD-UHFFFAOYSA-N
Temperature: 303 K
Tabular data in the source: 0
pressure (bar)	uptake (cm3(STP)/g)
0.159111	0.261407
0.250402	0.513763
0.302568	0.680841
0.45385	1.10132
0.507319	1.26857
0.563398	1.43617
0.623391	1.52423
0.680773	1.69201
0.736848	2.01972
0.792926	2.18732
0.849003	2.43498
0.905085	2.44246
0.965076	2.61059
1.02116	2.69813
1.07593	2.94561
1.11636	2.95101
1.1281	2.95257
