Adsorption isotherm of Carbon monoxide on MIL-53(Al)sol.ht
DOI: 10.1007/s10934-010-9371-7
Adsorbate Carbon monoxide: InChIKey UGFAIRIUMAVXCW-UHFFFAOYSA-N
Temperature: 303 K
Tabular data in the source: 0
pressure (bar)	uptake (cm3(STP)/g)
0.135625	0.658564
0.155181	0.981406
0.185179	0.985409
0.206043	1.14831
0.228213	1.23133
0.285588	1.71933
0.342967	2.04722
0.399043	2.29488
0.45642	2.70283
0.512495	3.03054
0.568567	3.43832
0.624644	3.68597
0.680718	4.01369
0.736791	4.42146
0.79417	4.74935
0.907623	5.40496
0.964998	5.89296
1.02107	6.14062
1.07715	6.54839
1.11627	6.71373
1.12801	6.87541
