Adsorption isotherm of Nitrogen on MIL-53(Al)sol.ht
DOI: 10.1007/s10934-010-9371-7
Adsorbate Nitrogen: InChIKey IJGRMHOSHXDMSA-UHFFFAOYSA-N
Temperature: 303 K
Tabular data in the source: 0
pressure (bar)	uptake (cm3(STP)/g)
0.22822	0.911095
0.285601	1.15893
0.341676	1.48664
0.455133	1.98213
0.53338	2.31281
0.585545	2.47988
0.641622	2.72754
0.697694	3.13531
0.75899	3.30361
0.815068	3.47121
0.868536	3.71852
0.928521	4.12681
0.984598	4.37447
1.03937	4.62196
1.09806	4.86996
1.13718	5.0353
