Adsorption isotherm of Oxygen on MIL-53(Al)sol.ht
DOI: 10.1007/s10934-010-9371-7
Adsorbate Oxygen: InChIKey MYMOFIZGZYHOMD-UHFFFAOYSA-N
Temperature: 288 K
Tabular data in the source: 0
pressure (bar)	uptake (cm3(STP)/g)
0.111235	0.543374
0.136101	0.72271
0.158343	0.63812
0.180596	0.992769
0.205457	0.996409
0.227702	0.999666
0.282667	1.35911
0.340249	1.71893
0.396521	1.99071
0.452795	2.35034
0.510375	2.62232
0.566645	2.80625
0.621608	3.07784
0.67919	3.43766
0.73546	3.6216
0.793042	3.98142
0.849312	4.16536
0.906894	4.52518
0.964477	4.885
1.02075	5.06894
1.07702	5.51641
1.11497	5.43412
1.12805	5.52389
