Adsorption isotherm of Carbon monoxide on MIL-53(Al)sol.ht
DOI: 10.1007/s10934-010-9371-7
Adsorbate Carbon monoxide: InChIKey UGFAIRIUMAVXCW-UHFFFAOYSA-N
Temperature: 288 K
Tabular data in the source: 0
pressure (bar)	uptake (cm3(STP)/g)
0.0353836	0.700191
0.072079	1.48813
0.0904257	1.83818
0.112702	2.18794
0.133669	2.5378
0.158571	3.15091
0.204436	3.93818
0.226713	4.28794
0.280443	5.33818
0.340723	6.38794
0.398383	7.43789
0.450801	8.40038
0.50846	9.36248
0.56743	10.4123
0.622468	11.3746
0.678816	12.3368
0.735166	13.3869
0.794133	14.261
0.850479	15.1354
0.905521	16.2734
0.963175	17.0598
1.02214	18.0218
1.13089	18.9802
