Adsorption isotherm of Nitrogen on MIL-53(Al)sol.ht
DOI: 10.1007/s10934-010-9371-7
Adsorbate Nitrogen: InChIKey IJGRMHOSHXDMSA-UHFFFAOYSA-N
Temperature: 288 K
Tabular data in the source: 0
pressure (bar)	uptake (cm3(STP)/g)
0.231637	1.43948
0.281368	1.79815
0.340259	2.15817
0.396535	2.60565
0.455423	2.87781
0.511697	3.23744
0.567969	3.50923
0.642565	4.04724
0.698837	4.31902
0.757728	4.67903
0.812691	4.95062
0.86635	5.39772
0.927859	5.84596
0.986748	6.11813
1.04302	6.56561
1.10061	7.01328
1.13071	7.10553
