Adsorption isotherm of Methane on MIL-53(Al)sol.ht
DOI: 10.1007/s10934-010-9371-7
Adsorbate Methane: InChIKey VNWKTOKETHGBQD-UHFFFAOYSA-N
Temperature: 303 K
Tabular data in the source: 0
pressure (bar)	uptake (cm3(STP)/g)
0.0730183	0.810326
0.092578	0.973052
0.116047	1.29642
0.135603	1.61926
0.160374	2.02286
0.185148	2.26634
0.207311	2.66959
0.226871	2.83231
0.285546	3.48061
0.341613	4.12855
0.397676	4.93662
0.455046	5.6648
0.513723	6.23304
0.56718	6.96069
0.623248	7.52858
0.680622	8.09665
0.739297	8.74494
0.794062	9.31266
0.850127	10.0407
0.906192	10.7687
0.964867	11.417
1.02224	12.1451
1.0757	12.7927
1.11742	13.3587
1.13176	13.6008
