Adsorption isotherm of Copper on Euglena gracilis
DOI: 10.1007/s10811-016-1040-z
Article source: Figure 3
Adsorbate Copper: InChIKey RYGMFSIKBFXOCR-UHFFFAOYSA-N
Kind: experiment
Temperature: 293 K
Tabular data in the source: 0
pressure (bar)	uptake (mg/kg)
1.01325	0.00761
1.01325	0.2181
1.01325	0.34296
1.01325	0.24538
1.01325	0.57536
1.01325	1.03482
1.01325	1.01097
1.01325	1.41037
1.01325	1.36482
