Adsorption isotherm of Nickel on Euglena gracilis
DOI: 10.1007/s10811-016-1040-z
Article source: Figure 3
Adsorbate Nickel: InChIKey PXHVJJICTQNCMI-UHFFFAOYSA-N
Kind: experiment
Temperature: 293 K
Tabular data in the source: 0
pressure (bar)	uptake (mg/kg)
1.01325	0.0262
1.01325	0.1072
1.01325	0.4477
1.01325	0.301
1.01325	1.2853
1.01325	1.0839
1.01325	2.8852
1.01325	2.5866
1.01325	6.2221
1.01325	5.7957
