Adsorption isotherm of Hydrogen on GX31 superactivated carbon (Method DM-V)
DOI: 10.1007/s10450-013-9558-8
Adsorbate Hydrogen: InChIKey UFHFLCQGNIYNRP-UHFFFAOYSA-N
Temperature: 298 K
Tabular data in the source: 0
pressure (bar)	uptake (wt%)
19.5053	0.163809
34.7893	0.286534
51.683	0.418612
68.3768	0.544279
