Adsorption isotherm of Hydrogen on GX31 superactivated carbon (Method DM-BC)
DOI: 10.1007/s10450-013-9558-8
Adsorbate Hydrogen: InChIKey UFHFLCQGNIYNRP-UHFFFAOYSA-N
Temperature: 298 K
Tabular data in the source: 0
pressure (bar)	uptake (wt%)
17.0903	0.151393
37.006	0.286087
56.5179	0.424089
70.4009	0.508387
