Adsorption isotherm of Hydrogen on GX31 superactivated carbon (Method BC)
DOI: 10.1007/s10450-013-9558-8
Adsorbate Hydrogen: InChIKey UFHFLCQGNIYNRP-UHFFFAOYSA-N
Temperature: 298 K
Tabular data in the source: 0
pressure (bar)	uptake (wt%)
19.5506	0.137178
35.9551	0.266249
52.5843	0.403736
69.4382	0.566515
