Adsorption isotherm of Hydrogen on GX31 superactivated carbon (Method V)
DOI: 10.1007/s10450-013-9558-8
Adsorbate Hydrogen: InChIKey UFHFLCQGNIYNRP-UHFFFAOYSA-N
Temperature: 298 K
Tabular data in the source: 0
pressure (bar)	uptake (wt%)
18.427	0.154174
35.2809	0.295856
51.0112	0.412341
69.2135	0.549661
