Adsorption isotherm of Carbon Dioxide on AlPO-18
DOI: 10.1016/j.micromeso.2021.111436
Article source: Figure 7
Adsorbate Carbon Dioxide: InChIKey CURLTUGMZLYLDI-UHFFFAOYSA-N
Kind: experiment
Temperature: 298 K
Tabular data in the source: 1
pressure (bar)	uptake (mmol/g)
0.010133	0.03
0.050662	0.12
0.08106	0.19
0.12159	0.27
0.16212	0.34
0.192518	0.41
0.233048	0.49
0.263445	0.56
0.303975	0.63
0.344505	0.7
0.374902	0.77
0.415432	0.84
0.44583	0.9
0.48636	0.97
0.52689	1.03
0.557288	1.09
0.597818	1.15
0.628215	1.21
0.668745	1.27
0.699142	1.32
0.739672	1.38
0.780203	1.43
0.8106	1.48
0.85113	1.53
0.881528	1.58
0.922057	1.63
0.962587	1.68
0.992985	1.73
1.03351	1.77
1.06391	1.81
