Adsorption isotherm of Nitrogen on AlPO-18
DOI: 10.1016/j.micromeso.2021.111436
Article source: Figure 7
Adsorbate Nitrogen: InChIKey IJGRMHOSHXDMSA-UHFFFAOYSA-N
Kind: experiment
Temperature: 298 K
Tabular data in the source: 1
pressure (bar)	uptake (mmol/g)
0.010133	0
0.060795	0.01
0.08106	0.01
0.12159	0.02
0.16212	0.02
0.192518	0.03
0.233048	0.03
0.263445	0.04
0.303975	0.04
0.344505	0.05
0.374902	0.05
0.415432	0.06
0.44583	0.06
0.48636	0.07
0.52689	0.07
0.557288	0.08
0.597818	0.08
0.628215	0.09
0.668745	0.09
0.709275	0.09
0.739672	0.1
0.780203	0.1
0.8106	0.11
0.85113	0.11
0.881528	0.11
0.922057	0.12
0.962587	0.12
0.992985	0.13
1.03351	0.13
1.06391	1.14
