Adsorption isotherm of Methane on AlPO-18
DOI: 10.1016/j.micromeso.2021.111436
Article source: Figure 7
Adsorbate Methane: InChIKey VNWKTOKETHGBQD-UHFFFAOYSA-N
Kind: experiment
Temperature: 298 K
Tabular data in the source: 1
pressure (bar)	uptake (mmol/g)
0.020265	0.01
0.060795	0.03
0.08106	0.04
0.12159	0.06
0.16212	0.07
0.192518	0.08
0.233048	0.1
0.273578	0.12
0.303975	0.13
0.344505	0.14
0.385035	0.16
0.415432	0.17
0.455962	0.19
0.48636	0.2
0.52689	0.21
0.56742	0.23
0.597818	0.24
0.638347	0.25
0.678878	0.26
0.709275	0.28
0.749805	0.29
0.780203	0.3
0.820733	0.31
0.85113	0.32
0.89166	0.33
0.93219	0.35
0.982852	0.36
1.00312	0.37
1.05378	0.38
1.09431	0.39
