Adsorption isotherm of Nitrogen on COF-71
DOI: 10.1021/jacs.9b02848
Article source: Figure S9
Adsorbate Nitrogen: InChIKey IJGRMHOSHXDMSA-UHFFFAOYSA-N
Kind: experiment
Temperature: 77 K
Tabular data in the source: 0
pressure (bar)	uptake (cm3(STP)/g)
0	65.1685
0	86.7416
0	100.674
0	108.764
0	115.955
0	123.146
0	129.438
0	134.831
0	139.326
0.000892	162.697
0.001793	174.382
0.002685	182.472
0.003577	191.461
0.004479	198.652
0.006262	204.045
0.006262	211.236
0.008055	216.629
0.008055	219.326
0.018796	241.798
0.029536	260.674
0.041178	276.854
0.052811	289.438
0.058181	294.831
0.072498	308.315
0.079662	311.91
0.088619	318.202
0.097566	322.697
0.128004	332.584
0.140528	335.281
0.162009	339.775
0.181706	342.472
0.201394	346.067
0.221983	349.213
0.240779	351.91
0.253312	353.258
0.266738	355.506
0.283751	357.753
0.30433	360
0.352672	364.494
0.401895	368.539
0.452923	373.933
0.505733	377.528
0.554065	382.022
0.605984	386.517
0.657001	390.562
0.708019	394.607
0.759046	397.303
0.809171	400.899
0.860188	404.494
0.912107	407.64
0.962233	412.584
1.01057	420.225
0.009849	240
0.045647	300.225
0.086825	335.73
0.145006	354.157
0.170966	358.652
0.19424	362.247
0.222874	365.843
0.250627	369.438
0.289121	373.034
0.39384	382.472
0.418908	383.82
0.444867	385.618
0.468132	387.416
0.488721	388.764
0.589874	394.607
0.690125	400
0.784104	404.944
0.889725	409.888
1.00967	420.225
