Adsorption isotherm of Carbon Dioxide on Mg2(dobpdc)(mmen)1.6(H2O)0.4
DOI: 10.1021/Ja300034j
Adsorbate Carbon Dioxide: InChIKey CURLTUGMZLYLDI-UHFFFAOYSA-N
Temperature: 298 K
Tabular data in the source: 0
pressure (bar)	uptake (mmol/g)
0.000737463	0.116028
0.00980211	1.87553
0.0193277	2.70755
0.0591507	2.97304
0.172689	3.16978
0.277317	3.29785
0.426592	3.45043
0.528915	3.54925
0.724834	3.70723
0.923181	3.9138
1.02532	3.98361
1.12976	4.08268
