Adsorption isotherm of Carbon Dioxide on Mg2(dobpdc)(mmen)1.6(H2O)0.4
DOI: 10.1021/Ja300034j
Adsorbate Carbon Dioxide: InChIKey CURLTUGMZLYLDI-UHFFFAOYSA-N
Temperature: 323 K
Tabular data in the source: 0
pressure (bar)	uptake (mmol/g)
0.0405157	0.00409006
0.292818	0.136448
0.383057	0.234632
0.401473	0.515588
0.423573	1.26604
0.451197	1.79139
0.491713	2.05083
0.524862	2.32139
0.581952	2.52906
