Adsorption isotherm of Carbon Dioxide on Mg2(dobpdc)(mmen)1.6(H2O)0.4
DOI: 10.1021/Ja300034j
Adsorbate Carbon Dioxide: InChIKey CURLTUGMZLYLDI-UHFFFAOYSA-N
Temperature: 348 K
Tabular data in the source: 0
pressure (bar)	uptake (mmol/g)
0.00958702	0.175025
0.0303896	1.7813
0.0460607	2.24689
0.092736	2.59046
0.223298	2.79884
0.325682	2.90733
0.417281	2.98558
0.52154	3.05564
0.721331	3.1561
0.816986	3.20583
1.01042	3.30556
1.12528	3.37684
