Adsorption isotherm of Carbon Dioxide on Mg2(dobpdc)(mmen)1.6(H2O)0.4
DOI: 10.1021/Ja300034j
Adsorbate Carbon Dioxide: InChIKey CURLTUGMZLYLDI-UHFFFAOYSA-N
Temperature: 348 K
Tabular data in the source: 0
pressure (bar)	uptake (mmol/g)
0.0976059	0.0157916
0.3407	0.0878379
0.578269	0.28403
0.587477	0.534365
0.605893	1.27257
0.637201	1.79235
0.653775	2.06719
0.686924	2.31994
0.72744	2.51405
