Adsorption isotherm of Carbon Dioxide on Mg2(dobpdc)(mmen)1.6(H2O)0.4
DOI: 10.1021/Ja300034j
Adsorbate Carbon Dioxide: InChIKey CURLTUGMZLYLDI-UHFFFAOYSA-N
Temperature: 393 K
Tabular data in the source: 0
pressure (bar)	uptake (mmol/g)
0.274401	0.0277009
0.372007	0.0553689
0.515654	0.117376
0.646409	0.172143
0.703499	0.225413
0.764273	0.314683
0.808471	0.414157
0.854512	0.537569
0.887661	1.50885
0.909761	2.01583
0.935543	2.20252
0.952118	2.4536
0.985267	2.58165
