Adsorption isotherm of Carbon Dioxide on Mg2(dobpdc)(mmen)1.6(H2O)0.4
DOI: 10.1021/Ja300034j
Adsorbate Carbon Dioxide: InChIKey CURLTUGMZLYLDI-UHFFFAOYSA-N
Temperature: 373 K
Tabular data in the source: 0
pressure (bar)	uptake (mmol/g)
0.0497238	0.0168961
0.267035	0.0685249
0.488029	0.13834
0.593002	0.220196
0.721915	0.393543
0.797422	2.01043
0.825046	2.25669
0.848987	2.43725
0.883978	2.57736
