Adsorption isotherm of Carbon Dioxide on Mg2(dobpdc)(mmen)1.6(H2O)0.4
DOI: 10.1021/Ja300034j
Adsorbate Carbon Dioxide: InChIKey CURLTUGMZLYLDI-UHFFFAOYSA-N
Temperature: 323 K
Tabular data in the source: 0
pressure (bar)	uptake (mmol/g)
0.00494715	0.445018
0.00980211	1.87553
0.0447702	2.7105
0.147769	2.91568
0.222345	2.9823
0.322609	3.09054
0.420446	3.1502
0.524766	3.22992
0.72044	3.34923
0.918172	3.45911
1.02449	3.51975
1.12263	3.62775
