Adsorption isotherm of Carbon Dioxide on Mg2(dobpdc)(mmen)1.6(H2O)0.4
DOI: 10.1021/Ja300034j
Adsorbate Carbon Dioxide: InChIKey CURLTUGMZLYLDI-UHFFFAOYSA-N
Temperature: 298 K
Tabular data in the source: 0
pressure (bar)	uptake (mmol/g)
0.12523	0.113592
0.178637	0.225872
0.197053	0.334619
0.20442	0.958878
0.224678	1.26377
0.239411	1.66312
0.255985	1.89045
0.279926	2.10071
0.305709	2.32302
