Adsorption isotherm of Nitrogen on MIL-47(V)
DOI: 10.1039/B927113a
Adsorbate Nitrogen: InChIKey IJGRMHOSHXDMSA-UHFFFAOYSA-N
Temperature: 77 K
Tabular data in the source: 0
pressure (bar)	uptake (cm3(STP)/g)
0.00229475	230.325
0.00944547	245.771
0.0337579	250.919
0.0566402	253.78
0.100975	256.068
0.169621	257.212
0.25543	258.928
0.348389	259.5
0.418466	260.644
0.504275	262.36
0.594374	262.36
0.681613	262.932
0.773142	261.788
0.863241	264.077
0.930458	265.221
0.973362	269.797
0.993384	276.662
