Adsorption isotherm of Nitrogen on MIL-53(Al)
DOI: 10.1039/B927113a
Adsorbate Nitrogen: InChIKey IJGRMHOSHXDMSA-UHFFFAOYSA-N
Temperature: 77 K
Tabular data in the source: 0
pressure (bar)	uptake (cm3(STP)/g)
0.00658518	276.662
0.0108756	297.828
0.0323278	306.981
0.05521	309.269
0.102405	311.557
0.168191	313.274
0.233978	314.418
0.322647	314.99
0.414176	316.134
0.502845	316.706
0.592944	315.562
0.681613	316.706
0.771712	315.562
0.861811	315.562
0.927597	314.99
0.971932	315.562
0.987663	318.422
