Adsorption isotherm of Nitrogen on MIL-53(Cr)
DOI: 10.1039/B927113a
Adsorbate Nitrogen: InChIKey IJGRMHOSHXDMSA-UHFFFAOYSA-N
Temperature: 77 K
Tabular data in the source: 0
pressure (bar)	uptake (cm3(STP)/g)
0.00801532	305.265
0.00801532	316.134
0.0266072	330.435
0.0509196	335.012
0.0995445	339.588
0.189643	341.304
0.276882	341.876
0.369842	341.876
0.45565	341.304
0.55004	341.876
0.663021	341.876
0.75026	340.732
0.836068	339.588
0.904715	339.588
0.966211	341.304
0.990524	346.453
