Adsorption isotherm of Carbon Dioxide on ZIF-8
DOI: 10.1007/s10450-012-9414-2
Adsorbate Carbon Dioxide: InChIKey CURLTUGMZLYLDI-UHFFFAOYSA-N
Temperature: 298 K
Tabular data in the source: 0
pressure (bar)	uptake (molecules/cage)
1.18016	0.995615
2.0387	1.97607
3.95478	4.08025
6.08377	6.05959
8.0626	7.48249
10	8.31471
11.8016	9.11851
14.1605	9.61223
15.9016	10
17.8567	10.5414
20.7276	10.5414
