Adsorption isotherm of Methane on ZIF-8
DOI: 10.1007/s10450-012-9414-2
Adsorbate Methane: InChIKey VNWKTOKETHGBQD-UHFFFAOYSA-N
Temperature: 298 K
Tabular data in the source: 0
pressure (bar)	uptake (molecules/cage)
0.105095	0.0290898
0.20052	0.0592789
0.308467	0.10044
0.395478	0.129029
0.507033	0.165755
0.608377	0.199351
0.683175	0.239757
0.779985	0.266424
0.905388	0.303965
1	0.337774
