Adsorption isotherm of Methane on ZIF-8
DOI: 10.1007/s10450-012-9414-2
Adsorbate Methane: InChIKey VNWKTOKETHGBQD-UHFFFAOYSA-N
Temperature: 298 K
Tabular data in the source: 0
pressure (bar)	uptake (molecules/cage)
1	0.296056
2.0052	0.697447
3.08467	0.982577
6.08377	1.97607
8.0626	2.64092
12.8206	3.62376
14.3969	3.97408
17.8567	4.59424
20.7276	5.10523
