Adsorption isotherm of Carbon Dioxide on ZIF-8
DOI: 10.1007/s10450-012-9414-2
Adsorbate Carbon Dioxide: InChIKey CURLTUGMZLYLDI-UHFFFAOYSA-N
Temperature: 298 K
Tabular data in the source: 0
pressure (bar)	uptake (molecules/cage)
0.1	0.111612
0.20387	0.221524
0.303399	0.328985
0.402084	0.433915
0.498703	0.550121
0.608377	0.652958
0.717984	0.764871
0.806259	0.884229
0.905388	0.969709
1	1.06345
