Adsorption isotherm of Carbon Dioxide on ZIF-8
DOI: 10.1007/s10450-012-9414-2
Adsorbate Carbon Dioxide: InChIKey CURLTUGMZLYLDI-UHFFFAOYSA-N
Temperature: 298 K
Tabular data in the source: 0
pressure (bar)	uptake (molecules/cage)
1.0167	1.07756
2.07275	1.68694
2.98415	2.82086
4.90509	4.30118
10.1669	7.3845
11.0451	9.36212
