Adsorption isotherm of Carbon Dioxide on Wyodak Coal
DOI: 10.1021/la0258648
Article source: Figure 6
Adsorbate Carbon Dioxide: InChIKey CURLTUGMZLYLDI-UHFFFAOYSA-N
Kind: experiment
Isotherm type: excess
Temperature: 295 K
Tabular data in the source: 0
pressure (bar)	uptake (mmol/g)
1.02433	0.582751
2.43992	1.07647
2.49177	0.883772
3.84863	1.26387
5.4201	1.19431
5.70621	1.42646
9.25018	1.63309
10.0894	1.47972
14.4199	1.68616
15.6046	1.90326
19.3119	1.87764
22.3512	2.12887
22.4038	1.97075
26.8452	2.11293
30.4449	2.29979
31.2303	2.25019
34.5467	2.32842
