Adsorption isotherm of Carbon Dioxide on Blind Canyon Coal
DOI: 10.1021/la0258648
Article source: Figure 6
Adsorbate Carbon Dioxide: InChIKey CURLTUGMZLYLDI-UHFFFAOYSA-N
Kind: experiment
Isotherm type: excess
Temperature: 295 K
Tabular data in the source: 0
pressure (bar)	uptake (mmol/g)
1.45658	0.533237
5.15406	0.917699
6.55462	1.09522
10.4202	1.27707
11.7087	1.24217
16.4706	1.46332
21.3445	1.51647
23.4174	1.62465
30.3641	1.6921
30.8123	1.73152
36.1905	1.78454
