Adsorption isotherm of Carbon Dioxide on Pocahontas No. 3 Coal
DOI: 10.1021/la0258648
Article source: Figure 6
Adsorbate Carbon Dioxide: InChIKey CURLTUGMZLYLDI-UHFFFAOYSA-N
Kind: experiment
Isotherm type: excess
Temperature: 295 K
Tabular data in the source: 0
pressure (bar)	uptake (mmol/g)
1.6338	0.559406
2.02817	0.633663
3.32394	0.782178
3.49296	0.792079
5.57746	0.935644
6.70423	1.00495
10.4225	1.10891
11.2676	1.13861
15.7183	1.23267
16.8451	1.25248
20.8451	1.31188
23.6056	1.35149
26.4225	1.37129
27.7746	1.39604
31.9437	1.44554
33.3521	1.4604
35.2113	1.4802
