Adsorption isotherm of Methane on Al-soc-MOF-1d
DOI: 10.1021/acs.jced.1c00951
Article source: Table S3 Part 7
Adsorbate Methane: InChIKey VNWKTOKETHGBQD-UHFFFAOYSA-N
Kind: experiment
Temperature: 298 K
Tabular data in the source: 1
pressure (bar)	uptake (mmol/g)
0.21	0.3
0.41	0.5
0.71	0.79
1.01	1.05
1.39	1.36
1.89	1.74
2.82	2.41
4.91	3.41
7.91	4.45
11.9	5.36
15.9	6.01
19.9	6.5
24.79	6.98
29.79	7.39
34.79	7.74
44.57	8.37
49.97	8.62
