Adsorption isotherm of Hydrogen on Ga-soc-MOF-1a
DOI: 10.1021/acs.jced.1c00951
Article source: Table S4 Part 6
Adsorbate Hydrogen: InChIKey UFHFLCQGNIYNRP-UHFFFAOYSA-N
Kind: experiment
Temperature: 77 K
Tabular data in the source: 1
pressure (bar)	uptake (wt%)
0.67	1.93
0.96	2.21
1.36	2.53
1.86	2.78
3.87	3.51
5.87	3.92
7.87	4.17
11.87	4.42
15.88	4.58
19.88	4.68
24.78	4.73
29.78	4.74
39.78	4.73
49.54	4.66
