Adsorption isotherm of Hydrogen on Fe-soc-MOF-1a
DOI: 10.1021/acs.jced.1c00951
Article source: Table S4 Part 4
Adsorbate Hydrogen: InChIKey UFHFLCQGNIYNRP-UHFFFAOYSA-N
Kind: experiment
Temperature: 77 K
Tabular data in the source: 1
pressure (bar)	uptake (wt%)
0.53	1.72
0.71	1.96
1	2.21
1.91	2.65
4.92	3.2
10.02	3.51
20.02	3.74
29.88	3.81
39.99	3.85
49.81	3.85
