Adsorption isotherm of Carbon Dioxide on Fe-soc-MOF-1a
DOI: 10.1021/acs.jced.1c00951
Article source: Table S5 Part 5
Adsorbate Carbon Dioxide: InChIKey CURLTUGMZLYLDI-UHFFFAOYSA-N
Kind: experiment
Temperature: 298 K
Tabular data in the source: 1
pressure (bar)	uptake (mmol/g)
0.33	1.08
0.41	1.41
0.61	2.06
0.8	2.66
1.01	3.23
1.51	4.39
2	5.29
4	7.27
6	8.2
7.99	8.79
12	9.5
15.99	9.98
19.98	10.31
23.99	10.74
