Adsorption isotherm of Hydrogen on Fe-soc-MOF-1b
DOI: 10.1021/acs.jced.1c00951
Article source: Table S4 Part 5
Adsorbate Hydrogen: InChIKey UFHFLCQGNIYNRP-UHFFFAOYSA-N
Kind: experiment
Temperature: 77 K
Tabular data in the source: 1
pressure (bar)	uptake (wt%)
0.93	2.29
1.9	2.91
3.91	3.48
7.91	3.99
11.9	4.29
15.92	4.48
19.96	4.66
24.81	4.84
29.92	5.05
39.99	5.26
49.79	5.43
