Adsorption isotherm of Nitrogen on Fe-soc-MOF-1b
DOI: 10.1021/acs.jced.1c00951
Article source: Figure S6
Adsorbate Nitrogen: InChIKey IJGRMHOSHXDMSA-UHFFFAOYSA-N
Kind: experiment
Temperature: 77 K
Tabular data in the source: 0
pressure (bar)	uptake (cm3(STP)/g)
0.00375	337.161
0.006251	364.301
0.008751	371.26
0.013127	378.219
0.016252	384.482
0.026253	393.528
0.043755	399.095
0.055007	402.575
0.063758	403.967
0.076259	408.142
0.086261	409.534
0.112514	414.405
0.15877	419.972
0.202525	423.452
0.255031	428.323
0.312539	430.411
0.356919	432.498
0.410051	433.194
0.462557	436.674
0.513813	435.978
0.562569	438.065
0.613826	441.545
0.664457	441.545
0.716338	441.893
0.767595	441.545
0.81385	444.328
0.861981	443.633
0.97262	447.112
0.883859	447.112
0.808225	446.416
0.711338	443.285
0.606325	439.457
0.497561	437.37
0.408175	434.238
0.300037	429.715
0.2019	423.452
0.101888	412.665
