Adsorption isotherm of Hydrogen on In-soc-MOF-1b
DOI: 10.1021/acs.jced.1c00951
Article source: Table S4 Part 2
Adsorbate Hydrogen: InChIKey UFHFLCQGNIYNRP-UHFFFAOYSA-N
Kind: experiment
Temperature: 77 K
Tabular data in the source: 1
pressure (bar)	uptake (wt%)
1.91	2.33
4.92	2.87
9.94	3.24
14.9	3.47
19.97	3.67
24.82	3.83
29.86	3.98
39.88	4.25
49.57	4.51
