Adsorption isotherm of Carbon Dioxide on In-soc-MOF-1a
DOI: 10.1021/acs.jced.1c00951
Article source: Table S5 Part 1
Adsorbate Carbon Dioxide: InChIKey CURLTUGMZLYLDI-UHFFFAOYSA-N
Kind: experiment
Temperature: 298 K
Tabular data in the source: 1
pressure (bar)	uptake (mmol/g)
0.31	0.71
0.41	0.95
0.61	1.38
0.81	1.76
1.01	2.14
1.51	2.9
2	3.5
4.01	4.94
6	5.67
7.99	6.14
11.96	6.73
15.99	7.15
19.99	7.46
24.98	7.75
