Adsorption isotherm of Nitrogen on In-soc-MOF-1c
DOI: 10.1021/acs.jced.1c00951
Article source: Figure S4
Adsorbate Nitrogen: InChIKey IJGRMHOSHXDMSA-UHFFFAOYSA-N
Kind: experiment
Temperature: 77 K
Tabular data in the source: 0
pressure (bar)	uptake (cm3(STP)/g)
0.003159	265.863
0.001895	271.138
0.004422	275.358
0.010739	278.523
0.013266	280.897
0.018319	283.798
0.021478	286.172
0.027163	289.601
0.032217	291.183
0.03727	292.766
0.043587	294.348
0.047378	296.458
0.052431	297.513
0.061275	299.096
0.073909	300.942
0.087807	302.525
0.107389	304.898
0.154135	310.965
0.206567	313.338
0.257103	314.921
0.309534	318.086
0.36007	319.668
0.404921	321.251
0.459879	322.833
0.506625	324.943
0.555898	325.999
0.607066	328.9
0.660129	330.219
0.70877	331.537
0.759937	333.12
0.810474	333.384
0.86101	335.757
0.970926	337.076
0.887541	336.549
0.812369	335.757
0.710033	334.439
0.606434	332.592
0.509784	330.746
0.409343	324.68
0.302585	320.46
0.20025	315.448
0.104863	306.745
0.051168	298.568
0.027795	291.447
0.008844	278.787
