Adsorption isotherm of Methane on In-soc-MOF-1c
DOI: 10.1021/acs.jced.1c00951
Article source: Table S3 Part 3
Adsorbate Methane: InChIKey VNWKTOKETHGBQD-UHFFFAOYSA-N
Kind: experiment
Temperature: 298 K
Tabular data in the source: 1
pressure (bar)	uptake (mmol/g)
0.16	0.18
0.38	0.33
0.65	0.51
0.96	0.7
1.37	0.95
1.85	1.22
3.85	2.09
5.85	2.7
7.85	3.17
11.85	3.84
15.85	4.31
19.85	4.67
24.74	5.03
29.74	5.33
34.78	5.59
39.74	5.8
49.51	6.22
