Adsorption isotherm of Carbon Dioxide on Ga-soc-MOF-1a
DOI: 10.1021/acs.jced.1c00951
Article source: Table S5 Part 4
Adsorbate Carbon Dioxide: InChIKey CURLTUGMZLYLDI-UHFFFAOYSA-N
Kind: experiment
Temperature: 298 K
Tabular data in the source: 1
pressure (bar)	uptake (mmol/g)
0.05	0.15
0.25	0.65
0.46	1.13
0.65	1.58
0.96	2.22
1.35	2.98
1.85	3.75
3.85	5.63
5.85	6.58
7.85	7.17
11.85	7.9
15.85	8.37
19.85	8.71
24.74	9.03
