Adsorption isotherm of Nitrogen on In-soc-MOF-1b
DOI: 10.1021/acs.jced.1c00951
Article source: Figure S3
Adsorbate Nitrogen: InChIKey IJGRMHOSHXDMSA-UHFFFAOYSA-N
Kind: experiment
Temperature: 77 K
Tabular data in the source: 0
pressure (bar)	uptake (cm3(STP)/g)
0.003337	268.715
0.004005	274.022
0.006675	279.05
0.00801	282.402
0.01068	285.754
0.012015	287.989
0.017355	290.782
0.022695	293.017
0.027367	294.693
0.034709	296.927
0.044054	298.045
0.053399	299.721
0.060074	300.279
0.070754	301.397
0.082101	303.352
0.100124	305.307
0.149518	308.659
0.204252	312.011
0.254981	314.246
0.30838	316.48
0.35911	317.598
0.406501	319.274
0.460568	321.508
0.511297	322.067
0.560692	323.184
0.608751	325.419
0.660815	325.419
0.706872	327.095
0.758269	328.492
0.814338	329.888
0.86173	330.726
0.967861	336.034
0.885092	332.123
0.791643	330.168
0.710209	327.654
0.610753	325.698
0.466576	322.067
0.397824	319.832
0.262324	315.084
0.19958	312.57
0.104128	306.983
0.052064	301.397
0.02937	296.369
0.008677	286.592
