Adsorption isotherm of Nitrogen on Ga-soc-MOF-1a
DOI: 10.1021/acs.jced.1c00951
Article source: Figure S7
Adsorbate Nitrogen: InChIKey IJGRMHOSHXDMSA-UHFFFAOYSA-N
Kind: experiment
Temperature: 77 K
Tabular data in the source: 0
pressure (bar)	uptake (cm3(STP)/g)
0.005082	269.296
0.006353	274.93
0.008894	278.31
0.008894	282.254
0.015246	286.197
0.017787	290.704
0.02287	294.648
0.043198	301.408
0.052092	304.225
0.063527	306.479
0.07242	307.606
0.085126	309.859
0.104184	313.239
0.152464	319.437
0.200109	322.254
0.250295	325.07
0.301116	327.887
0.355114	329.577
0.402759	331.831
0.457392	332.394
0.506307	334.366
0.553952	335.775
0.608585	336.62
0.660677	337.465
0.711498	339.155
0.76359	340.282
0.816953	341.972
0.866503	342.535
0.963064	344.225
0.882385	342.817
0.790271	341.972
0.702605	340
0.609221	338.592
0.508213	336.338
0.407841	332.394
0.301752	328.169
0.203285	321.972
0.102278	312.113
