Adsorption isotherm of Carbon Dioxide on In-soc-MOF-1b
DOI: 10.1021/acs.jced.1c00951
Article source: Table S5 Part 2
Adsorbate Carbon Dioxide: InChIKey CURLTUGMZLYLDI-UHFFFAOYSA-N
Kind: experiment
Temperature: 298 K
Tabular data in the source: 1
pressure (bar)	uptake (mmol/g)
0.31	0.85
0.41	1.1
0.61	1.59
0.81	2.03
1.01	2.45
1.51	3.29
2	3.95
4	5.53
6	6.34
7.99	6.86
12	7.52
15.99	7.96
19.99	8.32
24.99	8.33
