Adsorption isotherm of Hydrogen on In-soc-MOF-1c
DOI: 10.1021/acs.jced.1c00951
Article source: Table S4 Part 3
Adsorbate Hydrogen: InChIKey UFHFLCQGNIYNRP-UHFFFAOYSA-N
Kind: experiment
Temperature: 77 K
Tabular data in the source: 1
pressure (bar)	uptake (wt%)
0.66	1.75
0.99	2.03
1.86	2.43
4.87	2.99
9.86	3.36
14.86	3.57
19.86	3.72
24.75	3.79
29.74	3.82
34.74	3.81
39.74	3.76
49.51	3.75
