Adsorption isotherm of Methane on Fe-soc-MOF-1a
DOI: 10.1021/acs.jced.1c00951
Article source: Table S3 Part 4
Adsorbate Methane: InChIKey VNWKTOKETHGBQD-UHFFFAOYSA-N
Kind: experiment
Temperature: 298 K
Tabular data in the source: 1
pressure (bar)	uptake (mmol/g)
0.33	0.23
0.41	0.43
0.61	0.59
0.8	0.75
1.01	0.94
1.51	1.31
2	1.64
4	2.76
6	3.57
7.99	4.16
11.99	5.05
15.98	5.64
19.97	6.12
24.97	6.57
29.96	7.2
39.99	7.7
49.97	8.2
