Adsorption isotherm of Carbon Dioxide on In-soc-MOF-1c
DOI: 10.1021/acs.jced.1c00951
Article source: Table S5 Part 3
Adsorbate Carbon Dioxide: InChIKey CURLTUGMZLYLDI-UHFFFAOYSA-N
Kind: experiment
Temperature: 298 K
Tabular data in the source: 1
pressure (bar)	uptake (mmol/g)
0.05	0.18
0.25	0.79
0.46	1.34
0.65	1.83
0.956	2.47
1.358	3.16
1.85	3.83
3.85	5.35
5.85	6.1
7.85	6.59
11.85	7.26
15.85	7.71
19.85	8.05
24.74	8.36
