Adsorption isotherm of Methane on Fe-soc-MOF-1b
DOI: 10.1021/acs.jced.1c00951
Article source: Table S3 Part 5
Adsorbate Methane: InChIKey VNWKTOKETHGBQD-UHFFFAOYSA-N
Kind: experiment
Temperature: 298 K
Tabular data in the source: 1
pressure (bar)	uptake (mmol/g)
0.22	0.2
0.41	0.37
0.61	0.55
0.8	0.69
1.01	0.87
1.51	1.23
2	1.58
4	2.74
6	3.59
7.99	4.25
12	5.21
15.99	5.84
19.98	6.35
24.97	6.84
29.96	7.26
39.99	7.84
49.97	8.34
