Adsorption isotherm of Methane on In-soc-MOF-1a
DOI: 10.1021/acs.jced.1c00951
Article source: Table S3 Part 1
Adsorbate Methane: InChIKey VNWKTOKETHGBQD-UHFFFAOYSA-N
Kind: experiment
Temperature: 298 K
Tabular data in the source: 1
pressure (bar)	uptake (mmol/g)
0.22	0.1
0.41	0.21
0.61	0.35
0.81	0.45
1.01	0.59
1.51	0.85
2	1.07
4	1.86
6	2.43
7.99	2.86
12	3.49
15.99	3.94
19.98	4.26
24.97	4.59
29.97	4.89
39.98	5.33
49.97	5.72
