Adsorption isotherm of Nitrogen on Fe-soc-MOF-1a
DOI: 10.1021/acs.jced.1c00951
Article source: Figure S5
Adsorbate Nitrogen: InChIKey IJGRMHOSHXDMSA-UHFFFAOYSA-N
Kind: experiment
Temperature: 77 K
Tabular data in the source: 0
pressure (bar)	uptake (cm3(STP)/g)
0.003647	330.189
0.00851	361.186
0.010941	367.251
0.010941	373.315
0.013372	378.706
0.017019	386.792
0.034038	398.922
0.051058	404.987
0.063214	409.03
0.072939	411.051
0.081449	413.073
0.099684	416.442
0.151349	421.496
0.20423	425.202
0.254072	429.245
0.307561	433.288
0.362266	435.31
0.413323	438.005
0.465597	440.027
0.516046	442.722
0.566496	444.07
0.613299	445.418
0.664964	447.439
0.714806	449.124
0.763433	450.809
0.81449	452.156
0.864332	455.526
0.966447	458.221
0.87892	456.199
0.790177	452.83
0.707512	452.83
0.609044	448.787
0.503282	445.418
0.403598	440.701
0.267445	433.288
0.195113	427.224
0.102115	416.779
