Adsorption isotherm of Methane on In-soc-MOF-1b
DOI: 10.1021/acs.jced.1c00951
Article source: Table S3 Part 2
Adsorbate Methane: InChIKey VNWKTOKETHGBQD-UHFFFAOYSA-N
Kind: experiment
Temperature: 298 K
Tabular data in the source: 1
pressure (bar)	uptake (mmol/g)
0.22	0.18
0.406	0.32
0.61	0.48
0.804	0.63
1.01	0.74
1.51	1.06
2	1.36
4	2.23
6	2.82
7.99	3.23
12	3.94
15.99	4.42
18.98	4.82
24.97	5.2
29.96	5.49
39.98	5.98
48.42	6.32
