Adsorption isotherm of Carbon Dioxide on Al-soc-MOF-1d
DOI: 10.1021/acs.jced.1c00951
Article source: Table S5 Part 7
Adsorbate Carbon Dioxide: InChIKey CURLTUGMZLYLDI-UHFFFAOYSA-N
Kind: experiment
Temperature: 298 K
Tabular data in the source: 1
pressure (bar)	uptake (mmol/g)
0.05	0.34
0.25	1.28
0.47	2.17
0.63	2.75
0.82	3.39
1.01	3.97
2	5.82
3.98	8.15
5.99	9.23
7.99	9.92
11.99	10.66
15.99	11.14
19.98	11.44
24.74	11.82
