Adsorption isotherm of Hydrogen on In-soc-MOF-1a
DOI: 10.1021/acs.jced.1c00951
Article source: Table S4 Part 1
Adsorbate Hydrogen: InChIKey UFHFLCQGNIYNRP-UHFFFAOYSA-N
Kind: experiment
Temperature: 77 K
Tabular data in the source: 1
pressure (bar)	uptake (wt%)
0.71	1.91
1.01	2.14
1.87	2.48
4.88	2.98
9.98	3.38
14.98	3.65
19.98	3.89
29.89	4.34
39.87	4.75
49.98	5.04
