Adsorption isotherm of Nitrogen on In-soc-MOF-1a
DOI: 10.1021/acs.jced.1c00951
Article source: Figure S2
Adsorbate Nitrogen: InChIKey IJGRMHOSHXDMSA-UHFFFAOYSA-N
Kind: experiment
Temperature: 77 K
Tabular data in the source: 0
pressure (bar)	uptake (cm3(STP)/g)
0.002521	262.632
0.005041	270.526
0.008918	275.312
0.011471	279.271
0.015847	282.622
0.020223	285.363
0.026057	287.495
0.03335	289.932
0.042102	291.15
0.050854	292.636
0.060773	293.721
0.074921	295.11
0.085132	296.328
0.102635	298.155
0.151441	302.456
0.202902	305.526
0.254363	309.474
0.304773	309.912
0.357284	311.667
0.404544	313.86
0.458105	316.053
0.511666	318.246
0.555775	319.561
0.605135	320.439
0.658697	322.632
0.707007	323.947
0.759517	324.386
0.808878	325.702
0.857188	328.333
0.96536	332.719
0.881343	330.088
0.800476	327.895
0.713308	324.825
0.595683	322.193
0.504315	319.123
0.395092	316.053
0.303723	312.105
0.203952	307.281
0.103131	300.702
0.04957	294.561
0.027516	288.421
0.007562	278.333
