Adsorption isotherm of Carbon Dioxide on Fe-soc-MOF-1b
DOI: 10.1021/acs.jced.1c00951
Article source: Table S5 Part 6
Adsorbate Carbon Dioxide: InChIKey CURLTUGMZLYLDI-UHFFFAOYSA-N
Kind: experiment
Temperature: 298 K
Tabular data in the source: 1
pressure (bar)	uptake (mmol/g)
0.3	1.14
0.41	1.5
0.61	2.17
0.8	2.79
1.01	3.41
1.51	4.63
2	5.6
4	7.73
6	8.74
7.99	9.38
12	10.16
15.99	10.67
19.98	11.05
24.98	11.41
