Adsorption isotherm of Methane on Ga-soc-MOF-1a
DOI: 10.1021/acs.jced.1c00951
Article source: Table S3 Part 6
Adsorbate Methane: InChIKey VNWKTOKETHGBQD-UHFFFAOYSA-N
Kind: experiment
Temperature: 298 K
Tabular data in the source: 1
pressure (bar)	uptake (mmol/g)
0.16	0.27
0.37	0.44
0.65	0.66
0.967	0.89
1.36	1.15
1.85	1.45
3.85	2.41
5.85	3.09
7.85	3.4
11.85	4.31
15.86	4.8
19.85	5.18
24.74	5.54
29.74	5.83
34.74	6.07
39.75	6.27
49.52	6.45
