Adsorption isotherm of Nitrogen on Al-soc-MOF-1d
DOI: 10.1021/acs.jced.1c00951
Article source: Figure S8
Adsorbate Nitrogen: InChIKey IJGRMHOSHXDMSA-UHFFFAOYSA-N
Kind: experiment
Temperature: 77 K
Tabular data in the source: 0
pressure (bar)	uptake (cm3(STP)/g)
0.003225	264.378
0.003225	284.406
0.004515	303.29
0.005805	313.591
0.007095	317.024
0.008385	329.041
0.012254	333.619
0.016124	339.342
0.019994	342.775
0.027734	344.492
0.038053	346.781
0.045793	347.926
0.054823	347.926
0.066432	350.787
0.083201	350.787
0.151568	353.648
0.207036	356.509
0.253474	356.509
0.308296	358.798
0.356669	358.226
0.408267	359.943
0.458575	361.087
0.510817	361.66
0.55661	361.087
0.613368	363.948
0.662386	363.948
0.709468	364.235
0.759131	365.093
0.813954	366.237
0.859747	366.81
0.969392	368.526
0.886836	367.668
0.803634	366.81
0.712048	365.379
0.610143	364.235
0.508882	362.804
0.363119	360.515
0.299912	358.798
0.204456	356.795
0.10255	352.217
0.049663	348.212
0.027734	343.062
0.008385	327.039
