Adsorption isotherm of Hydrogen on MIL-101
DOI: 10.1039/C0cp01873b
Adsorbate Hydrogen: InChIKey UFHFLCQGNIYNRP-UHFFFAOYSA-N
Temperature: 20 K
Tabular data in the source: 0
pressure (bar)	uptake (cm3(STP)/g)
0	238.655
0.00294133	366.387
0.00441199	557.983
0.0117653	773.109
0.017648	810.084
0.0294133	843.697
0.0426492	890.756
0.0617678	907.563
0.0735331	937.815
0.114712	998.319
0.163244	1072.27
0.211775	1112.61
0.313251	1173.11
0.351488	1186.55
0.366195	1186.55
0.423551	1193.28
0.470612	1206.72
0.53238	1210.08
0.582383	1213.45
