Adsorption isotherm of Nitrogen on MIL-101
DOI: 10.1039/C0cp01873b
Adsorbate Nitrogen: InChIKey IJGRMHOSHXDMSA-UHFFFAOYSA-N
Temperature: 77 K
Tabular data in the source: 0
pressure (bar)	uptake (cm3(STP)/g)
0.00235235	216.402
0.0047047	263.296
0.0117617	389.552
0.0164664	411.209
0.0258758	454.522
0.0329329	476.188
0.0399899	494.247
0.0611611	555.637
0.0776275	591.764
0.0964463	642.325
0.148198	736.288
0.192893	776.126
0.246997	866.491
0.289339	881.074
0.341091	888.479
0.388138	899.474
0.439889	917.699
0.486936	925.086
0.538688	932.492
0.58103	939.862
0.635134	947.276
0.682181	951.057
0.73158	958.454
0.778627	965.841
0.825674	973.229
0.875074	977.019
0.924473	991.629
0.966815	1078.34
