Adsorption isotherm of Nitrogen on COF-5
DOI: 10.1021/jacs.9b04731
Article source: Figure 1(c)
Adsorbate Nitrogen: InChIKey IJGRMHOSHXDMSA-UHFFFAOYSA-N
Kind: experiment
Temperature: 77 K
Tabular data in the source: 0
pressure (bar)	uptake (cm3(STP)/g)
0	49.0654
0	58.8785
0	65.4206
0	73.5981
0	81.7757
0.001246	98.1308
0.002482	105.491
0.002482	111.215
0.004965	116.121
0.006211	121.028
0.008694	126.752
0.01987	142.29
0.027317	147.196
0.042222	157.009
0.047187	160.28
0.054634	163.551
0.064574	168.458
0.076987	173.364
0.084434	176.636
0.091892	181.542
0.099339	183.178
0.126656	194.626
0.136586	199.533
0.168878	210.981
0.181291	214.252
0.201161	215.888
0.248348	220.794
0.263242	224.065
0.283112	227.336
0.302982	228.972
0.321606	231.425
0.341475	234.696
0.35638	237.15
0.402321	240.421
0.454473	245.327
0.502896	250.234
0.553812	255.14
0.604718	261.682
0.654387	268.224
0.706539	274.766
0.754973	282.126
0.815818	296.028
0.866724	309.112
0.913911	328.738
0.977239	384.346
1.00829	443.224
0.007447	151.285
0.03974	182.36
0.090645	206.075
0.147762	229.79
0.171361	236.332
0.194949	240.421
0.222267	242.874
0.253312	246.963
0.293052	251.051
0.39611	260.865
0.424673	263.318
0.451991	266.589
0.478061	270.678
0.499178	274.766
0.599753	287.033
0.702821	299.299
0.793466	315.654
0.906464	352.453
1.00829	443.224
