Adsorption isotherm of Nitrogen on COF-1
DOI: 10.1021/jacs.9b04731
Article source: Figure 1(c)
Adsorbate Nitrogen: InChIKey IJGRMHOSHXDMSA-UHFFFAOYSA-N
Kind: experiment
Temperature: 77 K
Tabular data in the source: 0
pressure (bar)	uptake (cm3(STP)/g)
0	107.944
0	134.112
0	147.196
0.002482	161.916
0.004965	171.729
0.004965	178.271
0.004965	186.449
0.004965	196.262
0.016141	219.977
0.0298	235.514
0.042222	250.234
0.04967	256.776
0.057117	263.318
0.067057	269.86
0.076987	274.766
0.084434	281.308
0.090645	284.579
0.099339	289.486
0.127903	305.023
0.139069	311.565
0.167632	325.467
0.178808	331.192
0.206125	345.093
0.223513	361.449
0.2409	384.346
0.263242	408.879
0.283112	412.967
0.304228	416.238
0.360099	425.234
0.402321	431.776
0.46192	439.953
0.51159	448.131
0.555048	453.855
0.605964	459.579
0.661845	470.21
0.711514	478.388
0.764902	488.201
0.818301	501.285
0.865488	517.64
0.910182	541.355
0.971028	610.047
1.00829	686.916
0.047187	266.589
0.144044	327.103
0.176326	341.822
0.188738	348.365
0.22103	372.897
0.244619	403.154
0.298017	428.505
0.362581	439.953
0.399839	443.224
0.427156	448.131
0.453227	451.402
0.479308	457.944
0.608446	479.206
0.710268	497.196
0.800913	523.365
0.908946	578.972
1.00829	686.098
