Adsorption isotherm of Nitrogen on COF-2
DOI: 10.1021/jacs.9b04731
Article source: Figure 1(c)
Adsorbate Nitrogen: InChIKey IJGRMHOSHXDMSA-UHFFFAOYSA-N
Kind: experiment
Temperature: 77 K
Tabular data in the source: 0
pressure (bar)	uptake (cm3(STP)/g)
0	40.0701
0	53.972
0	101.402
0	140.654
0.001246	152.921
0.002482	167.64
0.002482	176.636
0.004965	186.449
0.006211	194.626
0.006211	201.986
0.007447	209.346
0.007447	214.252
0.018624	241.238
0.028564	255.958
0.03974	266.589
0.047187	273.131
0.065811	284.579
0.076987	291.121
0.086917	296.028
0.096857	300.935
0.126656	314.836
0.137832	319.743
0.16515	333.645
0.186256	343.458
0.206125	354.907
0.223513	367.991
0.2409	385.164
0.252066	398.248
0.26076	412.15
0.283112	428.505
0.3005	430.14
0.361345	439.953
0.409768	446.495
0.46192	454.673
0.502896	458.762
0.562506	466.939
0.614658	474.299
0.655634	479.206
0.716479	488.201
0.766149	497.196
0.815818	508.645
0.863005	523.365
0.910182	547.079
0.964827	600.234
1.00332	665.654
0.008694	233.061
0.044705	280.491
0.091892	305.841
0.139069	327.103
0.176326	345.093
0.194949	355.724
0.224749	376.168
0.25083	402.336
0.298017	435.865
0.399839	449.766
0.427156	453.037
0.455709	456.308
0.479308	462.85
0.504143	467.757
0.603482	482.477
0.694127	497.196
0.808361	526.635
0.908946	578.154
1.00332	664.836
