Adsorption isotherm of Nitrogen on COF-3
DOI: 10.1021/jacs.9b04731
Article source: Figure 1(c)
Adsorbate Nitrogen: InChIKey IJGRMHOSHXDMSA-UHFFFAOYSA-N
Kind: experiment
Temperature: 77 K
Tabular data in the source: 0
pressure (bar)	uptake (cm3(STP)/g)
0	1.63551
0.004965	6.54206
0.017387	8.17757
0.027317	9.81308
0.037247	9.81308
0.04967	11.4486
0.062082	11.4486
0.074504	13.0841
0.086917	13.0841
0.094374	13.0841
0.103068	13.9019
0.122927	14.7196
0.142797	15.5374
0.162667	15.5374
0.183773	16.3551
0.203643	17.9907
0.255795	19.6262
0.265725	19.6262
0.283112	19.6262
0.305464	21.2617
0.325334	21.2617
0.343958	22.0794
0.355134	22.8972
0.404804	24.5327
0.456955	26.1682
0.505379	28.6215
0.558777	30.257
0.605964	32.7103
0.660598	34.3458
0.709022	37.6168
0.759937	42.5234
0.808361	47.4299
0.866724	55.6075
0.91764	68.6916
0.96358	86.6822
1.00332	161.098
0.007447	8.17757
0.047187	12.2664
0.079469	13.9019
0.141561	16.3551
0.168878	17.9907
0.193713	17.9907
0.218548	19.6262
0.25083	21.2617
0.29056	22.0794
0.398592	26.1682
0.423427	26.986
0.449508	28.6215
0.475579	30.257
0.495449	32.7103
0.599753	39.2523
0.702821	47.4299
0.804642	57.243
0.896524	73.5981
1.00332	161.916
