Adsorption isotherm of Nitrogen on COF-4
DOI: 10.1021/jacs.9b04731
Article source: Figure 1(c)
Adsorbate Nitrogen: InChIKey IJGRMHOSHXDMSA-UHFFFAOYSA-N
Kind: experiment
Temperature: 77 K
Tabular data in the source: 0
pressure (bar)	uptake (cm3(STP)/g)
0	89.9533
0.007447	135.748
0.018624	150.467
0.033528	161.098
0.040976	164.369
0.04967	168.458
0.057117	172.547
0.067057	176.636
0.076987	179.907
0.08568	183.178
0.091892	186.449
0.099339	188.902
0.119209	195.444
0.144044	204.439
0.158938	209.346
0.188738	220.794
0.197432	225.701
0.228478	234.696
0.242136	236.332
0.253312	237.15
0.263242	238.785
0.283112	242.056
0.302982	243.692
0.351405	247.78
0.402321	253.505
0.451991	257.593
0.504143	263.318
0.558777	263.318
0.605964	263.318
0.65687	264.135
0.706539	269.042
0.76242	278.037
0.817054	285.397
0.86797	296.846
0.913911	313.201
0.962334	337.734
1.00704	401.519
0.037247	178.271
0.089409	197.897
0.151491	217.523
0.178808	225.701
0.198678	233.878
0.233443	240.421
0.293052	246.963
0.398592	255.14
0.424673	256.776
0.451991	259.229
0.478061	264.135
0.497931	269.86
0.602235	278.855
0.705303	289.486
0.810853	305.841
0.905217	327.921
1.00704	402.336
