Adsorption isotherm of Nitrogen on [Cu2(AcO)4-(CuTPyP)1/2]
DOI: 10.1021/Ic060358h
Adsorbate Nitrogen: InChIKey IJGRMHOSHXDMSA-UHFFFAOYSA-N
Temperature: 77 K
Tabular data in the source: 0
pressure (bar)	uptake (cm3(STP)/g)
0.00231314	0.00231314
0.00693943	153.577
0.0115657	168.58
0.0346971	187.883
0.0555154	195.755
0.08096	202.202
0.0948389	204.355
0.141102	213.675
0.191991	220.141
0.240567	225.177
0.293769	230.93
0.349285	235.971
0.400174	241.009
0.425618	243.884
0.462629	246.054
0.520457	253.24
0.582912	259
0.64768	264.762
0.710135	268.379
0.777216	274.143
0.851237	279.197
0.913691	284.957
