Adsorption isotherm of Nitrogen on Star-COF-3
DOI: 10.1039/c2ce26371h
Article source: Figure 3c
Adsorbate Nitrogen: InChIKey IJGRMHOSHXDMSA-UHFFFAOYSA-N
Kind: experiment
Temperature: 77 K
Tabular data in the source: 0
pressure (bar)	uptake (cm3(STP)/g)
0.00592	146.505
0.000159	41.5776
0.04817	231.108
0.096182	273.029
0.144193	305.803
0.192205	341.625
0.248586	382.582
0.297793	420.504
0.33624	461.289
0.384251	490.252
0.414329	498.853
0.463537	515.404
0.517526	520.739
0.576298	526.837
0.62431	532.172
0.672321	536.745
0.720333	541.318
0.768344	547.416
0.816356	553.513
0.864368	563.422
0.915966	571.888
0.963977	598.938
1.00119	772.605
0.984444	636.547
0.167978	327.402
0.123144	291.815
0.072332	249.11
0.015542	189.798
0.995914	695.136
0.221779	365.362
0.272591	403.321
0.350304	479.241
