Adsorption isotherm of Nitrogen on Star-COF-1
DOI: 10.1039/c2ce26371h
Article source: Figure 3a
Adsorbate Nitrogen: InChIKey IJGRMHOSHXDMSA-UHFFFAOYSA-N
Kind: experiment
Temperature: 77 K
Tabular data in the source: 0
pressure (bar)	uptake (cm3(STP)/g)
0.050662	118.257
0.101202	135.125
0.151987	151.601
0.20265	156.603
0.253312	166.606
0.303975	169.94
0.354637	173.275
0.4053	178.276
0.455962	178.276
0.506625	181.611
0.557288	184.945
0.60795	186.613
0.658613	188.28
0.709275	189.947
0.759937	193.281
0.817206	198.903
0.862204	202.495
0.917642	209.088
0.955992	222.894
0.992816	244.509
0.99178	271.539
1.01159	303.37
1.00531	327.999
0.281005	168.406
0.230718	160.61
0.177023	154.617
0.124886	142.016
0.074383	125.811
0.018346	95.7917
