Adsorption isotherm of Nitrogen on Star-COF-2
DOI: 10.1039/c2ce26371h
Article source: Figure 3b
Adsorbate Nitrogen: InChIKey IJGRMHOSHXDMSA-UHFFFAOYSA-N
Kind: experiment
Temperature: 77 K
Tabular data in the source: 0
pressure (bar)	uptake ()
0.344162	486.44
0.392362	502.395
0.440561	509.332
0.48876	516.269
0.53696	521.125
0.585159	524.594
0.633358	530.143
0.681557	534.999
0.729757	537.774
0.777956	542.63
0.826155	548.873
0.874355	555.81
0.922554	565.522
0.9626	583.017
0.983604	604.61
0.992606	645.637
0.992606	695.301
0.296461	462.095
0.266455	442.661
0.24245	421.068
0.218445	401.634
0.19144	377.881
0.164434	358.447
0.137428	339.013
0.119425	319.579
0.089419	295.827
0.068414	272.074
0.041409	244.003
0.024605	218.091
0.009602	183.542
0.0006	118.763
0.0006	49.6644
0.0012	28.0712
