Adsorption isotherm of Phosphate Ion on Nanostructured ZnFeZr (5.3:1.0:1.0 molar ratio)
DOI: 10.1039/c6en00507a
Article source: Figure 8
Adsorbate Phosphate Ion: InChIKey NBIIXXVUZAFLBC-UHFFFAOYSA-K
Kind: experiment
Temperature: 273 K
Tabular data in the source: 0
pressure (bar)	uptake (mg/g)
1.01325	5.179
1.01325	9.35
1.01325	14.26
1.01325	16.009
1.01325	19.103
1.01325	24.619
1.01325	34.641
1.01325	42.309
1.01325	50.381
1.01325	58.924
