Adsorption isotherm of Methane on MOF-1
DOI: 10.1021/Cg900797y
Adsorbate Methane: InChIKey VNWKTOKETHGBQD-UHFFFAOYSA-N
Temperature: 296 K
Tabular data in the source: 0
pressure (bar)	uptake (cm3(STP)/g)
0.0181464	0
0.122365	1.01124
0.235847	2.05998
0.344698	3.37091
0.511447	4.94401
0.615666	5.46838
0.726832	7.56586
0.84263	7.82805
0.951481	9.13897
1.06265	10.4499
