Adsorption isotherm of Carbon Dioxide on MOF-1
DOI: 10.1021/Cg900797y
Adsorbate Carbon Dioxide: InChIKey CURLTUGMZLYLDI-UHFFFAOYSA-N
Temperature: 296 K
Tabular data in the source: 0
pressure (bar)	uptake (cm3(STP)/g)
0.0621497	2.32217
0.175632	5.99275
0.289114	10.7121
0.395649	15.4314
0.504499	20.6751
0.620298	25.9188
0.731464	30.9003
0.84263	36.4062
0.953797	41.6499
1.05802	47.1558
