Adsorption isotherm of Acetylene on MOF-2
DOI: 10.1021/Cg900797y
Adsorbate Acetylene: InChIKey HSFWRNGVRCDJHI-UHFFFAOYSA-N
Temperature: 296 K
Tabular data in the source: 0
pressure (bar)	uptake (cm3(STP)/g)
0.0204623	1.13612
0.0945733	3.12436
0.164052	4.88318
0.240479	7.33024
0.30301	9.39495
0.395649	16.2773
0.46976	23.542
0.617982	27.3655
0.817155	29.5832
1.0557	30.5773
