Adsorption isotherm of Methane on MOF-2
DOI: 10.1021/Cg900797y
Adsorbate Methane: InChIKey VNWKTOKETHGBQD-UHFFFAOYSA-N
Temperature: 296 K
Tabular data in the source: 0
pressure (bar)	uptake (cm3(STP)/g)
0.0158304	0
0.129313	0.142004
0.233531	0.447887
0.347014	0.677298
0.451232	0.830239
0.569346	1.05965
0.673565	1.21259
0.782415	1.442
0.949165	1.74789
1.0557	1.82436
