Adsorption isotherm of Carbon Dioxide on MOF-2
DOI: 10.1021/Cg900797y
Adsorbate Carbon Dioxide: InChIKey CURLTUGMZLYLDI-UHFFFAOYSA-N
Temperature: 296 K
Tabular data in the source: 0
pressure (bar)	uptake (cm3(STP)/g)
0.043622	0.294945
0.18258	1.67142
0.344698	3.12436
0.455864	3.88906
0.569346	4.80671
0.675881	5.64789
0.787047	6.41259
0.891266	7.33024
1.00475	8.01847
1.05338	8.24789
