Adsorption isotherm of Acetylene on MOF-1
DOI: 10.1021/Cg900797y
Adsorbate Acetylene: InChIKey HSFWRNGVRCDJHI-UHFFFAOYSA-N
Temperature: 296 K
Tabular data in the source: 0
pressure (bar)	uptake (cm3(STP)/g)
0.00888249	0.749056
0.129313	11.2365
0.233531	20.1507
0.344698	29.5894
0.453548	39.8146
0.557767	50.8264
0.673565	61.8381
0.787047	72.8499
0.898214	83.0751
1.05802	99.0684
