Adsorption isotherm of Carbon Dioxide on UiO-66
DOI: 10.1016/j.jiec.2014.12.021
Article source: Figure 7
Adsorbate Carbon Dioxide: InChIKey CURLTUGMZLYLDI-UHFFFAOYSA-N
Kind: experiment
Temperature: 298 K
Tabular data in the source: 0
pressure (bar)	uptake (mmol/g)
0	0
0.029605	0.058498
0.050987	0.139075
0.074013	0.212301
0.098684	0.285514
0.121711	0.336721
0.144737	0.431965
0.172697	0.483136
0.199013	0.556338
0.223684	0.614872
0.248355	0.673407
0.273026	0.731941
0.297697	0.797815
0.322368	0.841671
0.348684	0.892854
0.368421	0.936746
0.391447	0.987953
0.417763	1.04648
0.440789	1.083
0.467105	1.14153
0.490132	1.18539
0.514803	1.22925
0.541118	1.28043
0.565789	1.33163
0.592105	1.39015
0.613487	1.45605
0.639803	1.50723
0.664474	1.55109
0.690789	1.59493
0.715461	1.63879
0.738487	1.68265
0.763158	1.74853
0.786184	1.79239
0.8125	1.83624
0.832237	1.88013
0.856908	1.93133
0.878289	1.97521
0.904605	2.01905
0.929276	2.07024
0.953947	2.1141
0.976974	2.15797
0.996711	2.2092
1.02303	2.25304
1.04605	2.30425
1.07072	2.3481
1.09211	2.39198
1.12007	2.42848
