Adsorption isotherm of Carbon Dioxide on UiO-66/GO-10
DOI: 10.1016/j.jiec.2014.12.021
Article source: Figure 7
Adsorbate Carbon Dioxide: InChIKey CURLTUGMZLYLDI-UHFFFAOYSA-N
Kind: experiment
Temperature: 298 K
Tabular data in the source: 0
pressure (bar)	uptake (mmol/g)
0	0
0.023026	0.161299
0.047697	0.293228
0.072368	0.417817
0.095395	0.53508
0.120066	0.64499
0.144737	0.76224
0.169408	0.850133
0.192434	0.952716
0.220395	1.04792
0.243421	1.13583
0.269737	1.23839
0.297697	1.31158
0.325658	1.39211
0.345395	1.48003
0.371711	1.5459
0.396382	1.63379
0.422697	1.70699
0.449013	1.78019
0.472039	1.84608
0.495066	1.90462
0.519737	1.9705
0.546053	2.0437
0.569079	2.10225
0.598684	2.17542
0.625	2.23394
0.644737	2.28518
0.674342	2.35835
0.700658	2.42422
0.725329	2.48275
0.745066	2.53398
0.774671	2.60716
0.799342	2.66569
0.824013	2.71689
0.850329	2.77541
0.875	2.83394
0.896382	2.87782
0.921053	2.92902
0.947368	2.98754
0.96875	3.0461
0.991776	3.08997
1.01645	3.14116
1.04276	3.19235
1.06743	3.24354
1.08882	3.29476
1.11184	3.33863
