Adsorption isotherm of Carbon Dioxide on UiO-66/GO-1
DOI: 10.1016/j.jiec.2014.12.021
Article source: Figure 7
Adsorbate Carbon Dioxide: InChIKey CURLTUGMZLYLDI-UHFFFAOYSA-N
Kind: experiment
Temperature: 298 K
Tabular data in the source: 0
pressure (bar)	uptake (mmol/g)
0	0
0.02796	0.088073
0.050987	0.190826
0.074013	0.26422
0.100329	0.352294
0.121711	0.418349
0.148026	0.506422
0.172697	0.587156
0.199013	0.66789
0.225329	0.733945
0.25	0.807339
0.273026	0.873394
0.299342	0.946789
0.322368	1.0055
0.347039	1.07156
0.368421	1.12294
0.391447	1.18165
0.417763	1.24771
0.439145	1.30642
0.465461	1.36514
0.488487	1.42385
0.516447	1.48991
0.541118	1.54128
0.565789	1.59266
0.590461	1.64404
0.613487	1.70275
0.639803	1.74679
0.664474	1.79817
0.689145	1.85688
0.715461	1.90826
0.738487	1.94495
0.764803	2.01101
0.784539	2.04771
0.809211	2.09908
0.833882	2.14312
0.856908	2.18716
0.881579	2.23853
0.90625	2.27523
0.929276	2.32661
0.952303	2.3633
0.976974	2.40734
1	2.44404
1.02303	2.49541
1.04605	2.53945
1.06908	2.58349
1.09375	2.62018
1.11513	2.65688
