Adsorption isotherm of Nitrogen on UiO-66/GO-1
DOI: 10.1016/j.jiec.2014.12.021
Article source: Figure 4
Adsorbate Nitrogen: InChIKey IJGRMHOSHXDMSA-UHFFFAOYSA-N
Kind: experiment
Temperature: 77 K
Tabular data in the source: 0
pressure (bar)	uptake (cm3(STP)/g)
0	0
0.001533	3.09761
0.003066	69.2118
0.004599	178.714
0.006132	129.126
0.007665	197.306
0.009197	199.371
0.012263	209.698
0.033724	228.271
0.067448	238.568
0.081244	243.719
0.101172	248.864
0.119567	251.944
0.144093	255.018
0.164021	257.064
0.182415	259.112
0.203876	260.123
0.252929	266.271
0.254463	264.203
0.305048	270.35
0.355634	272.365
0.40622	274.379
0.456806	274.328
0.507391	280.474
0.559511	278.355
0.608563	280.371
0.610096	285.535
0.65915	288.584
0.711268	285.432
0.760321	287.448
0.810907	291.529
0.812439	296.692
0.818571	297.719
0.835433	294.603
0.84463	299.759
0.861493	297.675
0.87069	300.765
0.886019	298.683
0.895217	305.905
0.912078	302.789
0.921275	310.011
0.936605	309.995
0.954999	324.44
0.961131	318.235
0.982592	346.106
0.984125	335.773
0.991789	348.162
0.994855	363.655
1.00252	365.713
1.00712	382.238
