Adsorption isotherm of Carbon Dioxide on UiO-66/GO-5
DOI: 10.1016/j.jiec.2014.12.021
Article source: Figure 7
Adsorbate Carbon Dioxide: InChIKey CURLTUGMZLYLDI-UHFFFAOYSA-N
Kind: experiment
Temperature: 298 K
Tabular data in the source: 0
pressure (bar)	uptake (mmol/g)
0	0
0.031199	0.241973
0.055829	0.381242
0.08046	0.557208
0.10509	0.711155
0.133005	0.872418
0.162562	1.04835
0.195402	1.20224
0.224959	1.35615
0.256158	1.48069
0.28243	1.59059
0.311987	1.7078
0.339901	1.80301
0.369458	1.89821
0.397373	2.00809
0.423645	2.10331
0.454844	2.18382
0.482759	2.26435
0.513957	2.34485
0.543514	2.44739
0.571429	2.52792
0.600985	2.60109
0.630542	2.67427
0.658456	2.7548
0.689655	2.81329
0.722496	2.90112
0.747126	2.97433
0.781609	3.04013
0.809524	3.09865
0.844007	3.17913
0.871921	3.24498
0.90312	3.3108
0.929392	3.36933
0.962233	3.43514
0.988506	3.49366
1.0197	3.55215
1.05255	3.6253
1.07882	3.68383
1.11166	3.73496
