Adsorption isotherm of Nitrogen on UiO-66
DOI: 10.1016/j.jiec.2014.12.021
Article source: Figure 4
Adsorbate Nitrogen: InChIKey IJGRMHOSHXDMSA-UHFFFAOYSA-N
Kind: experiment
Temperature: 77 K
Tabular data in the source: 0
pressure (bar)	uptake (cm3(STP)/g)
0.14256	239.13
0.200811	244.306
0.252929	245.342
0.305048	247.412
0.3541	248.447
0.404687	249.482
0.456806	250.518
0.507391	251.553
0.557978	252.588
0.60703	252.588
0.65915	252.588
0.709735	253.623
0.760321	254.658
0.792511	254.658
0.818571	254.658
0.841565	255.694
0.869157	256.729
0.893683	257.764
0.919743	258.799
0.947335	261.905
0.973395	265.01
0.988723	270.186
1.00712	277.433
