Adsorption isotherm of Nitrogen on UiO-66/GO-10
DOI: 10.1016/j.jiec.2014.12.021
Article source: Figure 4
Adsorbate Nitrogen: InChIKey IJGRMHOSHXDMSA-UHFFFAOYSA-N
Kind: experiment
Temperature: 77 K
Tabular data in the source: 0
pressure (bar)	uptake (cm3(STP)/g)
0	0
0.001533	3.09761
0.003066	61.9803
0.004599	204.541
0.006132	81.6053
0.007665	171.48
0.009197	233.462
0.029125	258.235
0.061316	266.466
0.079711	270.58
0.099639	274.692
0.1211	276.736
0.14256	278.78
0.164021	280.825
0.180882	281.84
0.203876	283.883
0.205409	282.848
0.251396	287.967
0.252929	285.899
0.303515	289.98
0.3541	291.994
0.355634	291.993
0.404687	294.009
0.407753	294.006
0.455272	296.023
0.459872	297.052
0.505859	299.071
0.507391	302.169
0.556444	301.086
0.557978	305.216
0.608563	308.264
0.65915	308.212
0.660682	311.31
0.708202	310.228
0.711268	314.357
0.758787	313.276
0.761854	319.471
0.807841	319.424
0.812439	325.618
0.821637	326.642
0.835433	324.561
0.847696	331.78
0.859959	328.669
0.876822	338.982
0.887552	334.839
0.910545	349.278
0.935072	352.352
0.939671	367.844
0.958065	367.825
0.967263	397.774
0.984125	407.054
0.98719	447.341
0.990256	427.709
0.991789	465.931
0.997921	487.619
1.00099	464.889
1.00559	504.14
