Adsorption isotherm of Nitrogen on UiO-66/GO-5
DOI: 10.1016/j.jiec.2014.12.021
Article source: Figure 4
Adsorbate Nitrogen: InChIKey IJGRMHOSHXDMSA-UHFFFAOYSA-N
Kind: experiment
Temperature: 77 K
Tabular data in the source: 0
pressure (bar)	uptake (cm3(STP)/g)
0	0
0.001533	3.09761
0.003066	37.187
0.004599	74.3755
0.006132	155.985
0.007665	171.48
0.01073	277.882
0.032191	303.686
0.061316	312.954
0.081244	318.099
0.102705	322.209
0.124166	323.221
0.144093	326.299
0.164021	329.378
0.183948	330.391
0.202343	331.405
0.203876	331.404
0.249863	334.456
0.252929	335.486
0.303515	337.5
0.305048	336.466
0.355634	340.547
0.357167	338.479
0.40622	342.561
0.407753	342.559
0.456806	343.543
0.459872	343.539
0.505859	345.559
0.510457	346.587
0.557978	347.572
0.559511	350.669
0.608563	348.553
0.610096	352.684
0.65915	351.601
0.709735	353.615
0.711268	356.713
0.758787	356.664
0.761854	360.794
0.810907	361.777
0.812439	365.907
0.835433	364.851
0.838499	367.947
0.846163	370.005
0.859959	366.892
0.872223	372.045
0.886019	369.964
0.898283	378.216
0.910545	376.138
0.935072	384.377
0.941204	393.668
0.958065	395.717
0.96573	413.272
0.982592	432.882
0.988723	421.513
0.994855	437.002
1.00099	457.657
1.00405	477.282
