Adsorption isotherm of Methane on NIST RM-8850
DOI: 10.1007/s10450-020-00253-0
Article source: Figure S8
Adsorbate Methane: InChIKey VNWKTOKETHGBQD-UHFFFAOYSA-N
Kind: experiment
Isotherm type: excess
Temperature: 298 K
Tabular data in the source: 1
pressure (bar)	uptake (mmol/g)
0	0
0.429639	0.171548
1.10387	0.426469
1.91954	0.718005
2.83226	1.02068
3.79292	1.31158
4.79818	1.5838
5.84767	1.8361
6.89639	2.05841
7.95157	2.25443
8.99673	2.42494
10.5396	2.64065
12.34	2.84969
14.299	3.03744
16.3113	3.19321
18.3508	3.32579
20.3951	3.43812
22.4456	3.52913
24.5025	3.61018
26.5437	3.6776
28.5896	3.73393
30.4031	3.77998
