Adsorption isotherm of Methane on NIST RM-8850
DOI: 10.1007/s10450-020-00253-0
Article source: Figure S8
Adsorbate Methane: InChIKey VNWKTOKETHGBQD-UHFFFAOYSA-N
Kind: experiment
Isotherm type: excess
Temperature: 298 K
Tabular data in the source: 1
pressure (bar)	uptake (mmol/g)
0	0
0.43192	0.170652
1.08996	0.417965
1.9068	0.710489
2.818	1.01391
3.79766	1.31021
4.81143	1.58302
5.83983	1.82866
6.89279	2.04944
7.94317	2.24507
9.0033	2.41736
10.5469	2.63252
12.3486	2.84201
14.2967	3.02726
16.3163	3.18247
18.356	3.31209
20.3974	3.42409
22.4486	3.51458
24.4971	3.59441
26.5424	3.65972
28.587	3.71846
30.401	3.75603
