Adsorption isotherm of Methane on NIST RM-8850
DOI: 10.1007/s10450-020-00253-0
Article source: Figure S10
Adsorbate Methane: InChIKey VNWKTOKETHGBQD-UHFFFAOYSA-N
Kind: experiment
Isotherm type: excess
Temperature: 298 K
Tabular data in the source: 1
pressure (bar)	uptake (mmol/g)
0.00263	0.0001
1.00325	0.3803
2.00305	0.73
3.00393	1.0551
4.00143	1.3528
5.00066	1.6168
6.00155	1.8533
7.00232	2.0633
8.00258	2.2471
9.00102	2.4109
10.001	2.5531
12.006	2.799
14.0071	2.995
16.0061	3.1532
18.0009	3.2835
20.002	3.3908
21.9977	3.4818
23.999	3.5589
26.0009	3.6229
27.9932	3.6756
30.0027	3.7193
34.5074	3.8007
38.9966	3.8507
43.4989	3.8824
48.0065	3.8977
52.5041	3.8982
57.0091	3.8904
61.5064	3.8733
66.0013	3.8494
70.5064	3.8186
75.0063	3.7815
