Adsorption isotherm of Methane on NIST RM-8850
DOI: 10.1007/s10450-020-00253-0
Article source: Figure S9
Adsorbate Methane: InChIKey VNWKTOKETHGBQD-UHFFFAOYSA-N
Kind: experiment
Isotherm type: excess
Temperature: 298 K
Tabular data in the source: 1
pressure (bar)	uptake (mmol/g)
0.75	0.2944
1.462	0.5618
2.137	0.8008
2.973	1.0786
3.814	1.3305
4.659	1.5652
5.511	1.7773
6.368	1.9733
7.236	2.1436
8.104	2.3066
8.975	2.451
9.848	2.5823
10.729	2.6948
11.924	2.8392
14.028	3.0454
16.083	3.2087
18.085	3.3367
20.022	3.4426
21.921	3.5333
23.76	3.6045
25.548	3.6642
27.276	3.726
28.964	3.766
30.603	3.7997
33.965	3.863
37.327	3.9099
40.682	3.9483
44.051	3.9704
47.413	3.9975
50.779	4.0072
54.142	4.0148
57.513	4.0106
60.873	4.0023
64.236	4.0022
67.605	3.975
70.971	3.9695
74.339	3.9327
77.71	3.9159
