Adsorption isotherm of Methane on NIST RM-8850
DOI: 10.1007/s10450-020-00253-0
Article source: Figure S10
Adsorbate Methane: InChIKey VNWKTOKETHGBQD-UHFFFAOYSA-N
Kind: experiment
Isotherm type: excess
Temperature: 298 K
Tabular data in the source: 1
pressure (bar)	uptake (mmol/g)
0	0.017111
1.00305	0.411046
2.00237	0.779906
3.0041	1.12424
4.00853	1.49193
5.01668	1.76633
6.00848	2.00686
6.99429	2.21132
8.00623	2.40654
8.99549	2.56962
10.0053	2.71876
12.0069	2.97931
14.0118	3.18302
16.0017	3.35205
17.9959	3.5018
20.0594	3.63025
21.9915	3.70403
24.019	3.77394
25.987	3.82755
28.0654	3.87875
30.038	3.93362
34.4763	4.0207
38.9863	4.07709
43.4844	4.13952
47.9831	4.15412
52.5151	4.18958
56.9557	4.21636
61.5203	4.25587
66.0793	4.29264
