Adsorption isotherm of Methane on NIST RM-8850
DOI: 10.1007/s10450-020-00253-0
Article source: Figure S8
Adsorbate Methane: InChIKey VNWKTOKETHGBQD-UHFFFAOYSA-N
Kind: experiment
Isotherm type: excess
Temperature: 298 K
Tabular data in the source: 1
pressure (bar)	uptake (mmol/g)
0	0
0.526	0.215243
0.997	0.402064
1.508	0.590099
2.028	0.775287
2.521	0.946783
3.026	1.11307
3.514	1.26607
4.04	1.4218
4.449	1.53815
4.675	1.5988
4.77	1.63112
5.78847	1.89399
6.91127	2.13673
8.03506	2.35348
9.13202	2.53335
9.94978	2.66323
12.2292	2.97027
14.2273	3.15814
16.1274	3.28686
18.2124	3.43092
20.1462	3.53907
22.1099	3.63789
24.0059	3.73562
26.0233	3.81386
28.0258	3.87148
29.9665	3.92454
34.4012	4.03106
38.9107	4.09909
43.4907	4.13662
48.0449	4.20131
52.4878	4.22116
56.9913	4.23674
61.5316	4.27765
66.0371	4.25854
70.5088	4.25208
74.9586	4.24872
