Adsorption isotherm of Methane on NIST RM-8850
DOI: 10.1007/s10450-020-00253-0
Article source: Figure S8
Adsorbate Methane: InChIKey VNWKTOKETHGBQD-UHFFFAOYSA-N
Kind: experiment
Isotherm type: excess
Temperature: 298 K
Tabular data in the source: 1
pressure (bar)	uptake (mmol/g)
0	0
0.406927	0.16361
1.04286	0.407331
1.82482	0.689983
2.71862	0.989264
3.67942	1.28315
4.70004	1.56286
5.74427	1.81567
6.80701	2.04225
7.86554	2.23924
8.92533	2.41312
10.4722	2.63067
12.2825	2.84114
14.2384	3.02838
16.258	3.18477
18.317	3.31955
20.371	3.42844
22.432	3.52207
24.476	3.59891
26.5352	3.66635
28.5814	3.72154
30.3991	3.76841
