Adsorption isotherm of Methane on NIST RM-8850
DOI: 10.1007/s10450-020-00253-0
Article source: Figure S8
Adsorbate Methane: InChIKey VNWKTOKETHGBQD-UHFFFAOYSA-N
Kind: experiment
Isotherm type: excess
Temperature: 298 K
Tabular data in the source: 1
pressure (bar)	uptake (mmol/g)
0	0
2.02325	0.774722
4.09846	1.4304
6.30033	1.98329
8.58338	2.41156
10.9834	2.74404
13.4385	3.00165
15.9002	3.20266
18.3911	3.3523
20.9177	3.47762
23.4541	3.59017
26.0165	3.67454
28.595	3.75976
31.2061	3.79426
33.7912	3.80925
36.386	3.87099
38.9841	3.92242
41.5822	3.91602
44.2192	3.89064
46.84	3.92768
49.4121	3.90854
52.0784	3.84919
54.7024	3.8865
57.3135	3.84782
59.8791	3.79866
62.4674	3.7375
65.0817	3.68285
67.7025	3.68591
70.3233	3.61298
72.9019	3.52789
75.5097	3.5602
