Adsorption isotherm of Methane on NIST RM-8850
DOI: 10.1007/s10450-020-00253-0
Article source: Figure S10
Adsorbate Methane: InChIKey VNWKTOKETHGBQD-UHFFFAOYSA-N
Kind: experiment
Isotherm type: excess
Temperature: 298 K
Tabular data in the source: 1
pressure (bar)	uptake (mmol/g)
1.00255	0.4059
2.00253	0.7666
3.00152	1.0952
4.00301	1.3926
5.00126	1.6582
6.00354	1.8904
7.00399	2.0972
8.00433	2.2802
9.00826	2.4417
10.0023	2.5841
12.0004	2.8241
14.0017	3.017
16.0096	3.1756
18.0061	3.3042
20.0009	3.4104
21.9992	3.5
23.9988	3.5758
26	3.6396
27.9967	3.6931
29.9964	3.7374
34.4941	3.8153
38.9926	3.866
43.5019	3.8964
47.9917	3.9109
52.5007	3.9139
57.0039	3.9052
61.5016	3.8894
66.0028	3.8646
70.4954	3.8373
74.9968	3.8023
