Adsorption isotherm of Methane on NIST RM-8850
DOI: 10.1007/s10450-020-00253-0
Article source: Figure S8
Adsorbate Methane: InChIKey VNWKTOKETHGBQD-UHFFFAOYSA-N
Kind: experiment
Isotherm type: excess
Temperature: 298 K
Tabular data in the source: 1
pressure (bar)	uptake (mmol/g)
0	0
4.25	1.06745
11.391	1.56738
18.105	1.81985
23.843	1.9617
28.695	2.06768
31.747	2.12885
35.012	2.15579
38.522	2.20984
42.611	2.25346
47.22	2.32508
52.377	2.39192
58.237	2.44791
64.066	2.49439
70.475	2.54919
76.792	2.64305
