Adsorption isotherm of Methane on NIST RM-8850
DOI: 10.1007/s10450-020-00253-0
Article source: Figure S6
Adsorbate Methane: InChIKey VNWKTOKETHGBQD-UHFFFAOYSA-N
Kind: experiment
Isotherm type: excess
Temperature: 298 K
Tabular data in the source: 1
pressure (bar)	uptake (mmol/g)
0	0
1.01	0.433992
2.02	0.804051
3.03	1.13973
4.02	1.43888
5.02	1.70543
6.02	1.94081
7	2.14609
8.11	2.34763
9.02	2.49706
10.03	2.6436
12.04	2.88378
14.04	3.07943
16.03	3.23986
18.02	3.37427
20.04	3.48847
22.04	3.58443
24.01	3.66624
26.05	3.73636
28.02	3.79436
30	3.84568
34.51	3.93608
39.02	3.99702
43.5	4.03632
48.02	4.05672
52.5	4.07299
57.03	4.0764
61.53	4.0651
66.03	4.0479
70.51	4.03219
75.01	4.00814
