Adsorption isotherm of Methane on NIST RM-8850
DOI: 10.1007/s10450-020-00253-0
Article source: Figure S8
Adsorbate Methane: InChIKey VNWKTOKETHGBQD-UHFFFAOYSA-N
Kind: experiment
Isotherm type: excess
Temperature: 298 K
Tabular data in the source: 1
pressure (bar)	uptake (mmol/g)
0	0
2.35775	0.852217
4.90386	1.56325
7.57338	2.17442
10.3533	2.58413
13.1885	2.93265
16.0918	3.19846
19.0666	3.36414
22.0479	3.54054
25.1039	3.64091
28.1566	3.74519
31.284	3.79679
34.3043	3.8456
37.37	3.93592
40.4682	3.96122
43.547	3.9645
46.6484	3.96141
49.6524	3.95471
52.7571	3.9233
55.8293	3.99183
58.973	3.97032
61.9965	3.945
65.0687	3.96883
68.1247	3.906
71.1905	3.82303
