Adsorption isotherm of Methane on NIST RM-8850
DOI: 10.1007/s10450-020-00253-0
Article source: Figure S7
Adsorbate Methane: InChIKey VNWKTOKETHGBQD-UHFFFAOYSA-N
Kind: experiment
Isotherm type: excess
Temperature: 298 K
Tabular data in the source: 1
pressure (bar)	uptake (mmol/g)
0.19134	0.077119
0.959783	0.373381
1.71278	0.647486
2.45315	0.899247
3.15576	1.12425
3.84161	1.32672
4.73755	1.56921
5.37336	1.72853
6.28613	1.93203
6.8786	2.05041
7.81257	2.22732
8.7582	2.38903
9.70897	2.53164
10.6698	2.66093
12.5628	2.87611
14.4648	3.05233
16.4071	3.2011
18.3467	3.32627
20.2904	3.43184
22.2379	3.521
24.2051	3.5971
26.1676	3.6645
28.1301	3.72031
30.0832	3.77154
32.2909	3.81837
34.4949	3.85883
36.6955	3.89149
38.9054	3.91947
41.1188	3.94223
43.3261	3.96061
45.5383	3.97353
47.7511	3.98485
49.9638	3.99181
52.1785	3.9886
54.3893	3.99035
56.592	3.98644
58.8018	3.97964
61.0079	3.97599
63.2205	3.95945
65.4318	3.94809
66.4136	3.95276
