Adsorption isotherm of Methane on NIST RM-8850
DOI: 10.1007/s10450-020-00253-0
Article source: Figure S7
Adsorbate Methane: InChIKey VNWKTOKETHGBQD-UHFFFAOYSA-N
Kind: experiment
Isotherm type: excess
Temperature: 298 K
Tabular data in the source: 1
pressure (bar)	uptake (mmol/g)
0	0
0.295296	0.243921
0.672618	0.372853
1.39773	0.642545
2.19503	0.917283
3.41559	1.30387
4.68536	1.64896
5.93873	1.94645
7.4677	2.23376
9.61024	2.59777
12.2187	2.90504
14.8403	3.16123
17.4914	3.34426
20.5854	3.53277
24.1126	3.66848
27.6266	3.79194
31.1964	3.86369
34.7498	3.9244
38.7363	3.97836
42.7063	4.0033
46.6403	4.00715
50.9812	4.0381
55.3253	4.04681
58.3603	4.00937
59.9713	3.9758
