Adsorption isotherm of Methane on NIST RM-8850
DOI: 10.1007/s10450-020-00253-0
Article source: Figure S9
Adsorbate Methane: InChIKey VNWKTOKETHGBQD-UHFFFAOYSA-N
Kind: experiment
Isotherm type: excess
Temperature: 298 K
Tabular data in the source: 1
pressure (bar)	uptake (mmol/g)
0.757	0.3001
1.462	0.5692
2.136	0.8109
2.973	1.0851
3.815	1.3361
4.661	1.572
5.52	1.79
6.387	1.9825
7.263	2.158
8.132	2.3156
9.004	2.4628
9.872	2.5888
10.743	2.7031
11.929	2.8432
14.036	3.0527
16.092	3.2133
18.095	3.3452
20.05	3.4493
21.937	3.5305
23.777	3.6114
25.566	3.673
27.307	3.7242
28.992	3.7617
30.633	3.8028
33.984	3.8661
37.344	3.9055
40.708	3.9388
44.08	3.9614
47.448	3.986
50.81	3.9957
54.175	3.9998
57.538	3.9891
60.904	3.9803
64.267	3.9655
67.636	3.9422
71.002	3.9418
74.374	3.9095
77.744	3.8925
