Adsorption isotherm of Methane on NIST RM-8850
DOI: 10.1007/s10450-020-00253-0
Article source: Figure S10
Adsorbate Methane: InChIKey VNWKTOKETHGBQD-UHFFFAOYSA-N
Kind: experiment
Isotherm type: excess
Temperature: 298 K
Tabular data in the source: 1
pressure (bar)	uptake (mmol/g)
1.00334	0.3912
2.00211	0.7541
3.0021	1.0871
4.00975	1.3843
5.00442	1.6531
6.00186	1.8868
7.00106	2.0945
8.00291	2.2793
9.00119	2.441
9.99986	2.5828
12.0015	2.8253
14.0061	3.0193
16.0002	3.1742
18.004	3.3031
20.0003	3.4099
22.0012	3.4989
23.9998	3.5743
25.9956	3.638
27.9999	3.6917
29.9987	3.7354
34.4966	3.8139
39.0112	3.8629
43.501	3.8946
47.9916	3.9102
52.505	3.9123
56.9942	3.9048
61.5029	3.8882
66.0022	3.8649
70.5657	3.8339
74.9986	3.8006
