Adsorption isotherm of Methane on NIST RM-8850
DOI: 10.1007/s10450-020-00253-0
Article source: Figure S6
Adsorbate Methane: InChIKey VNWKTOKETHGBQD-UHFFFAOYSA-N
Kind: experiment
Isotherm type: excess
Temperature: 298 K
Tabular data in the source: 1
pressure (bar)	uptake (mmol/g)
1.048	0.405071
2.043	0.758818
3.03667	1.08195
4.05267	1.38072
5.052	1.64261
6.06067	1.87902
7.01067	2.07424
8.018	2.26088
9.00767	2.42287
10.0383	2.57081
11.9997	2.81051
14.0107	3.01177
16.0337	3.17355
17.991	3.30635
20.001	3.41966
21.9103	3.51264
24.0243	3.59725
26.061	3.66591
27.9973	3.72388
30.0323	3.77369
34.5383	3.86172
39.0313	3.92306
43.5343	3.96422
48.2193	3.99346
52.5073	4.00811
57.0203	4.01179
61.5157	4.00809
66.0153	3.99243
70.6343	3.97507
75.032	3.95093
