Adsorption isotherm of Methane on NIST RM-8850
DOI: 10.1007/s10450-020-00253-0
Article source: Figure S8
Adsorbate Methane: InChIKey VNWKTOKETHGBQD-UHFFFAOYSA-N
Kind: experiment
Isotherm type: excess
Temperature: 298 K
Tabular data in the source: 1
pressure (bar)	uptake (mmol/g)
0	0
4.128	1.14211
11.788	1.62031
18.807	1.85211
24.545	2.01368
29.489	2.11159
34.036	2.16662
38.4	2.23081
43.069	2.29349
48.227	2.39762
53.232	2.46782
59.275	2.50322
64.92	2.55297
70.658	2.60258
76.701	2.70917
