Adsorption isotherm of Methane on NIST RM-8850
DOI: 10.1007/s10450-020-00253-0
Article source: Figure S7
Adsorbate Methane: InChIKey VNWKTOKETHGBQD-UHFFFAOYSA-N
Kind: experiment
Isotherm type: excess
Temperature: 298 K
Tabular data in the source: 1
pressure (bar)	uptake (mmol/g)
0.183394	0.073977
0.928392	0.361541
1.6576	0.626626
2.36135	0.869168
3.05161	1.09053
3.71203	1.28908
4.36777	1.47223
5.00387	1.63657
5.61573	1.78397
6.2199	1.91644
6.80604	2.03615
7.71422	2.21062
8.64602	2.36807
9.58693	2.51148
10.5186	2.63969
12.3912	2.8576
14.2766	3.03851
16.1914	3.18861
18.1188	3.31636
20.0592	3.42466
21.9992	3.51782
23.9523	3.59391
25.9036	3.6612
27.8624	3.72007
29.8304	3.77146
31.7902	3.81568
33.996	3.85775
36.206	3.89377
38.4184	3.92312
40.6259	3.948
42.8482	3.96592
45.0615	3.97988
47.2673	3.99202
49.4844	4.00085
51.6983	4.00445
53.9153	4.00964
56.1304	4.00798
58.3489	4.00564
60.5657	3.99886
62.7807	3.99124
64.9965	3.98
67.2139	3.96687
