Adsorption isotherm of Methane on NIST RM-8850
DOI: 10.1007/s10450-020-00253-0
Article source: Figure S7
Adsorbate Methane: InChIKey VNWKTOKETHGBQD-UHFFFAOYSA-N
Kind: experiment
Isotherm type: excess
Temperature: 298 K
Tabular data in the source: 1
pressure (bar)	uptake (mmol/g)
0.190068	0.077822
0.965772	0.375991
1.72668	0.653534
2.4455	0.897429
3.15892	1.12504
3.84952	1.32866
4.50835	1.50968
5.41306	1.73665
6.33277	1.94
7.25642	2.1279
8.20242	2.29512
9.14052	2.4449
10.0947	2.58252
11.9948	2.81335
13.9076	3.00176
15.8372	3.15872
17.773	3.28944
19.7118	3.39951
21.6588	3.49803
23.6216	3.58378
25.5793	3.65061
27.541	3.70844
29.4992	3.76061
31.4616	3.80961
33.6796	3.85017
35.8828	3.88977
38.101	3.91666
40.3064	3.93884
42.5191	3.95844
44.7255	3.97527
46.9345	3.98472
49.1537	3.99274
51.3625	3.99673
53.5683	3.9989
55.7763	3.99771
57.9892	3.98869
60.1952	3.98639
62.4046	3.97344
64.6136	3.9665
66.8282	3.94885
