Adsorption isotherm of Methane on NIST RM-8850
DOI: 10.1007/s10450-020-00253-0
Article source: Figure S10
Adsorbate Methane: InChIKey VNWKTOKETHGBQD-UHFFFAOYSA-N
Kind: experiment
Isotherm type: excess
Temperature: 298 K
Tabular data in the source: 1
pressure (bar)	uptake (mmol/g)
0.00509	0.001981
0.006208	0.00242
0.007104	0.002769
0.008235	0.003215
0.009127	0.003566
0.02687	0.01059
0.051556	0.020283
0.075089	0.029482
0.102111	0.040019
0.125833	0.049235
0.152684	0.059621
0.178133	0.069446
0.203538	0.079242
0.228805	0.088946
0.252392	0.097966
0.279413	0.108323
0.304849	0.11816
0.33019	0.127829
0.355484	0.137475
0.379065	0.14641
0.406023	0.156637
0.431389	0.166294
0.456798	0.175839
0.482123	0.185388
0.507577	0.19498
0.532787	0.20456
0.558131	0.214097
0.583397	0.223592
0.608692	0.233017
0.634102	0.24246
0.659535	0.251926
0.684738	0.261356
0.709984	0.270826
0.735308	0.2802
0.760633	0.289558
0.785954	0.298843
0.811495	0.308249
0.836696	0.317655
0.86198	0.326998
0.887185	0.33636
0.912603	0.345613
0.937959	0.354848
0.963335	0.364187
0.988641	0.373575
1.00764	0.380584
