Adsorption isotherm of Methane on NIST RM-8850
DOI: 10.1007/s10450-020-00253-0
Article source: Figure S6
Adsorbate Methane: InChIKey VNWKTOKETHGBQD-UHFFFAOYSA-N
Kind: experiment
Isotherm type: excess
Temperature: 298 K
Tabular data in the source: 1
pressure (bar)	uptake (mmol/g)
0	0
0.3849	0.16168
0.9897	0.39748
1.73	0.66994
2.5904	0.97016
3.5156	1.26205
4.4843	1.53796
5.4722	1.78723
6.4642	2.00243
7.4567	2.20639
8.4792	2.38177
9.9276	2.59428
11.6148	2.8086
13.4536	3.00539
15.3328	3.162
17.2653	3.29918
19.2944	3.41817
21.3055	3.52596
23.3285	3.61429
25.3547	3.67147
27.3587	3.73012
30.4483	3.80513
34.1592	3.87851
38.1997	3.95712
42.4631	3.99084
46.816	4.01414
51.2599	4.01797
55.7139	4.03919
60.1816	4.01196
64.6709	3.99297
69.1485	3.94228
