Adsorption isotherm of Methane on NIST RM-8850
DOI: 10.1007/s10450-020-00253-0
Article source: Figure S6
Adsorbate Methane: InChIKey VNWKTOKETHGBQD-UHFFFAOYSA-N
Kind: experiment
Isotherm type: excess
Temperature: 298 K
Tabular data in the source: 1
pressure (bar)	uptake (mmol/g)
1.018	0.397798
2.00267	0.750565
3.001	1.07619
4.014	1.37657
5.009	1.64009
5.962	1.86319
7.003	2.08023
8.004	2.26646
8.997	2.43063
10.002	2.57569
12.0063	2.82157
13.9983	3.01821
15.997	3.18064
17.987	3.31537
20.017	3.42926
22.0757	3.52735
23.9993	3.60375
26.006	3.67312
28.0053	3.73268
30.009	3.77972
34.5117	3.86878
39.0063	3.93301
43.521	3.97499
48.058	4.00002
52.548	4.01373
56.9583	4.01772
61.535	4.01278
66.0167	3.99838
70.5593	3.98059
75.0153	3.95838
