Adsorption isotherm of Methane on NIST RM-8850
DOI: 10.1007/s10450-020-00253-0
Article source: Figure S8
Adsorbate Methane: InChIKey VNWKTOKETHGBQD-UHFFFAOYSA-N
Kind: experiment
Isotherm type: excess
Temperature: 298 K
Tabular data in the source: 1
pressure (bar)	uptake (mmol/g)
0	0
0.519	0.211602
0.984	0.395815
1.527	0.596405
2.037	0.777538
2.519	0.946426
2.998	1.10519
3.513	1.26669
4.025	1.41803
4.47	1.54354
4.7075	1.60789
4.78797	1.63067
5.92548	1.89683
7.0163	2.12914
8.10712	2.33231
9.1741	2.50452
10.103	2.64109
12.1903	2.89227
14.0242	3.07496
15.9287	3.23044
18.0239	3.37792
20.0237	3.49177
22.0176	3.58761
23.9886	3.67813
26.0173	3.75891
28.0439	3.82799
28.5613	3.84321
29.8871	3.89055
34.4262	3.98439
39.0777	4.05587
43.6805	4.1024
48.114	4.14075
52.5246	4.16597
57.0388	4.18117
61.5739	4.21148
66.0193	4.20331
70.4648	4.19849
74.973	4.19918
