Adsorption isotherm of Methane on NIST RM-8850
DOI: 10.1007/s10450-020-00253-0
Article source: Figure S7
Adsorbate Methane: InChIKey VNWKTOKETHGBQD-UHFFFAOYSA-N
Kind: experiment
Isotherm type: excess
Temperature: 298 K
Tabular data in the source: 1
pressure (bar)	uptake (mmol/g)
0	0
0.168	0.070889
0.421	0.170142
0.677	0.269682
0.921	0.361473
1.456	0.559082
1.921	0.723766
2.927	1.05874
3.935	1.35713
4.925	1.62293
7.427	2.16749
9.92	2.56783
14.905	3.10108
19.915	3.43231
24.946	3.64529
29.867	3.79233
34.881	3.89268
39.903	3.96227
44.874	4.00843
49.881	4.03776
54.903	4.04821
59.979	4.05355
