Adsorption isotherm of Methane on NIST RM-8850
DOI: 10.1007/s10450-020-00253-0
Article source: Figure S6
Adsorbate Methane: InChIKey VNWKTOKETHGBQD-UHFFFAOYSA-N
Kind: experiment
Isotherm type: excess
Temperature: 298 K
Tabular data in the source: 1
pressure (bar)	uptake (mmol/g)
0.316125	0.114195
0.835897	0.312957
1.50193	0.556169
4.35008	1.46723
6.69458	2.04549
8.53616	2.4054
9.92719	2.63402
10.9798	2.78548
12.0818	2.92718
14.0942	3.14683
16.0913	3.32595
18.0826	3.47614
20.0655	3.60292
22.0881	3.71444
24.0743	3.80762
26.092	3.88805
28.0441	3.95659
30.0795	4.01761
34.5208	4.12427
38.9989	4.20462
43.4694	4.2601
47.9653	4.29946
52.4551	4.32465
56.9797	4.33736
61.3885	4.33892
65.9633	4.32747
70.4054	4.30844
74.9184	4.27364
