Adsorption isotherm of Methane on NIST RM-8850
DOI: 10.1007/s10450-020-00253-0
Article source: Figure S7
Adsorbate Methane: InChIKey VNWKTOKETHGBQD-UHFFFAOYSA-N
Kind: experiment
Isotherm type: excess
Temperature: 298 K
Tabular data in the source: 1
pressure (bar)	uptake (mmol/g)
0	0
0.195588	0.079494
0.398088	0.157213
0.595888	0.232458
0.798526	0.308609
0.99605	0.382196
1.49808	0.563049
1.99542	0.735369
2.99506	1.06149
3.99664	1.3522
4.99711	1.61658
5.99759	1.84915
6.99889	2.05511
7.99715	2.23707
8.99763	2.40148
9.99727	2.54402
11.9992	2.7911
13.9989	2.98593
15.9949	3.14543
17.9988	3.27609
19.4978	3.35754
