Adsorption isotherm of Methane on NIST RM-8850
DOI: 10.1007/s10450-020-00253-0
Article source: Figure S6
Adsorbate Methane: InChIKey VNWKTOKETHGBQD-UHFFFAOYSA-N
Kind: experiment
Isotherm type: excess
Temperature: 298 K
Tabular data in the source: 1
pressure (bar)	uptake (mmol/g)
0	0
0.3512	0.14133
0.9291	0.36261
1.6438	0.62025
2.5077	0.9235
3.432	1.2104
4.3782	1.48202
5.3787	1.739
6.3866	1.95532
7.3792	2.16368
8.4306	2.33819
9.8657	2.55892
11.555	2.76994
13.397	2.96454
15.3386	3.12754
17.3196	3.27043
19.2996	3.39437
21.3128	3.49665
23.2886	3.5825
25.2936	3.65303
27.3364	3.7143
30.3927	3.83309
34.0702	3.9462
38.1578	4.01
42.4079	4.06074
46.8076	4.08659
51.1971	4.10847
55.6665	4.11391
60.1216	4.08538
64.6388	4.06078
69.1617	4.01835
