Adsorption isotherm of Methane on NIST RM-8850
DOI: 10.1007/s10450-020-00253-0
Article source: Figure S7
Adsorbate Methane: InChIKey VNWKTOKETHGBQD-UHFFFAOYSA-N
Kind: experiment
Isotherm type: excess
Temperature: 298 K
Tabular data in the source: 1
pressure (bar)	uptake (mmol/g)
0	0
0.196833	0.081874
0.395739	0.159118
0.595474	0.234616
0.794794	0.30916
0.99453	0.382652
1.49643	0.565843
1.99376	0.739283
2.99617	1.06635
3.99692	1.36091
4.99228	1.62656
5.99607	1.85919
6.99737	2.06619
7.9977	2.24987
8.99749	2.41373
9.99575	2.55872
11.9957	2.81083
13.9942	3.00607
15.9983	3.16957
17.9975	3.30334
19.4982	3.3827
