Adsorption isotherm of Methane on NIST RM-8850
DOI: 10.1007/s10450-020-00253-0
Article source: Figure S9
Adsorbate Methane: InChIKey VNWKTOKETHGBQD-UHFFFAOYSA-N
Kind: experiment
Isotherm type: excess
Temperature: 298 K
Tabular data in the source: 1
pressure (bar)	uptake (mmol/g)
0.407174	0.158179
0.659635	0.255605
0.831052	0.320032
0.948586	0.363571
1.02636	0.392091
1.84591	0.682885
2.86952	1.0169
3.90182	1.3218
4.92023	1.59093
5.92958	1.82679
6.92905	2.03431
7.91816	2.21503
8.89114	2.37366
9.91654	2.52134
11.7816	2.75053
13.7948	2.94801
15.7855	3.10929
17.7917	3.24316
19.6115	3.34444
21.6055	3.43846
23.6045	3.51839
25.6498	3.58859
28.2293	3.6629
29.8103	3.70028
34.0646	3.78044
38.6257	3.83794
43.018	3.87799
47.5389	3.90147
52.0448	3.90986
56.4756	3.90527
60.964	3.90233
65.3736	3.88927
69.9261	3.87267
74.3352	3.8448
