Adsorption isotherm of Methane on NIST RM-8850
DOI: 10.1007/s10450-020-00253-0
Article source: Figure S9
Adsorbate Methane: InChIKey VNWKTOKETHGBQD-UHFFFAOYSA-N
Kind: experiment
Isotherm type: excess
Temperature: 298 K
Tabular data in the source: 1
pressure (bar)	uptake (mmol/g)
0.437925	0.170013
0.694394	0.268506
0.863356	0.331805
0.974589	0.372675
1.86212	0.687461
2.93708	1.03612
3.99553	1.34593
4.9201	1.58892
5.96235	1.83122
6.94215	2.03451
7.91557	2.2112
8.98958	2.38535
9.88345	2.51277
11.9383	2.76364
13.8156	2.94478
15.9084	3.11316
17.9993	3.24986
19.9235	3.35651
21.9267	3.4479
23.8756	3.52731
25.7989	3.59014
27.6546	3.6414
29.5947	3.686
34.0398	3.76824
38.5737	3.83264
43.0342	3.86883
47.5197	3.88867
51.9816	3.90908
56.4693	3.90096
60.9294	3.90336
65.4062	3.89145
69.9561	3.86477
74.39	3.83957
