Adsorption isotherm of Methane on NIST RM-8850
DOI: 10.1007/s10450-020-00253-0
Article source: Figure S9
Adsorbate Methane: InChIKey VNWKTOKETHGBQD-UHFFFAOYSA-N
Kind: experiment
Isotherm type: excess
Temperature: 298 K
Tabular data in the source: 1
pressure (bar)	uptake (mmol/g)
0.016107	0.006758
0.051277	0.021353
0.090753	0.037644
0.131595	0.054347
0.171791	0.070687
0.212516	0.087174
0.252593	0.103283
0.293686	0.119756
0.334061	0.135847
0.374888	0.152072
0.41487	0.167842
0.455559	0.183883
0.496132	0.199814
0.5371	0.215737
0.577803	0.231592
0.617722	0.247094
0.658093	0.262743
0.699097	0.278448
0.739675	0.294026
0.780225	0.309553
0.821007	0.325108
0.861291	0.340396
0.902289	0.355942
0.942462	0.371014
0.983106	0.386335
1.02429	0.401789
1.06485	0.417009
1.10545	0.432078
1.12141	0.438102
