Adsorption isotherm of Methane on NIST RM-8850
DOI: 10.1007/s10450-020-00253-0
Article source: Figure S9
Adsorbate Methane: InChIKey VNWKTOKETHGBQD-UHFFFAOYSA-N
Kind: experiment
Isotherm type: excess
Temperature: 298 K
Tabular data in the source: 1
pressure (bar)	uptake (mmol/g)
0.010038	0
0.417959	0.152423
0.613369	0.221687
0.81402	0.296307
1.40866	0.512026
2.40544	0.853596
3.4029	1.1691
4.40133	1.45193
5.39962	1.70357
6.39859	1.92941
7.3973	2.12477
8.39628	2.30341
9.39746	2.45815
10.3962	2.59913
11.3974	2.71946
12.3967	2.82963
13.3954	2.9306
14.3951	3.01809
15.3947	3.09927
16.3953	3.17278
17.3954	3.24037
18.3941	3.30079
19.3929	3.35798
