Adsorption isotherm of Methane on NIST RM-8850
DOI: 10.1007/s10450-020-00253-0
Article source: Figure S6
Adsorbate Methane: InChIKey VNWKTOKETHGBQD-UHFFFAOYSA-N
Kind: experiment
Isotherm type: excess
Temperature: 298 K
Tabular data in the source: 1
pressure (bar)	uptake (mmol/g)
0.331925	0.110998
0.852801	0.309472
1.51866	0.551512
4.68419	1.54695
7.29708	2.16006
9.3369	2.52948
10.8511	2.75483
12.0911	2.91489
14.1055	3.13505
16.0937	3.31402
18.0972	3.46659
20.0947	3.59425
22.068	3.70257
24.0863	3.79838
26.0923	3.88016
28.0479	3.94902
30.047	4.01033
34.5538	4.11893
39.0018	4.19697
43.5037	4.25251
47.9769	4.29269
52.4507	4.3184
56.9834	4.33293
61.4621	4.33701
65.9858	4.32775
70.3767	4.30926
74.8609	4.27733
