Adsorption isotherm of Methane on NIST RM-8850
DOI: 10.1007/s10450-020-00253-0
Article source: Figure S8
Adsorbate Methane: InChIKey VNWKTOKETHGBQD-UHFFFAOYSA-N
Kind: experiment
Isotherm type: excess
Temperature: 298 K
Tabular data in the source: 1
pressure (bar)	uptake (mmol/g)
0	0
2.35775	0.893485
4.89087	1.67032
7.5539	2.26417
10.3696	2.70874
13.2209	3.03672
16.1698	3.29051
19.1446	3.46845
22.1746	3.60173
25.2305	3.72565
28.3352	3.79645
31.4302	3.88552
34.5284	3.94329
37.6169	3.95701
40.7021	3.96072
43.81	3.98443
46.9309	3.92907
50.0584	3.92754
53.2378	3.89879
56.3652	3.86412
59.4796	3.94854
62.6298	3.86291
65.9813	3.69904
69.1282	3.79321
72.3563	3.90494
