Adsorption isotherm of Methane on NIST RM-8850
DOI: 10.1007/s10450-020-00253-0
Article source: Figure S10
Adsorbate Methane: InChIKey VNWKTOKETHGBQD-UHFFFAOYSA-N
Kind: experiment
Isotherm type: excess
Temperature: 298 K
Tabular data in the source: 1
pressure (bar)	uptake (mmol/g)
0	0
0.529454	0.201522
1.38858	0.508968
2.37335	0.839283
3.40719	1.15361
4.44431	1.43578
5.4081	1.66855
6.4355	1.88878
7.3871	2.0696
8.28227	2.22118
9.21589	2.36343
10.7553	2.56684
12.579	2.76712
14.7132	2.95676
16.6017	3.09928
18.7487	3.23209
20.9199	3.34552
22.7954	3.42859
24.5201	3.49436
26.5445	3.55583
28.7748	3.61198
32.0676	3.6904
36.0184	3.76054
40.4131	3.82032
44.7196	3.86751
49.1497	3.90313
53.6296	3.94194
58.2303	3.96411
62.9002	3.99112
66.6546	3.99595
72.286	3.99583
