Adsorption isotherm of Methane on NIST RM-8850
DOI: 10.1007/s10450-020-00253-0
Article source: Figure S7
Adsorbate Methane: InChIKey VNWKTOKETHGBQD-UHFFFAOYSA-N
Kind: experiment
Isotherm type: excess
Temperature: 298 K
Tabular data in the source: 1
pressure (bar)	uptake (mmol/g)
0	0
0.113	0.053116
0.317	0.130462
0.522	0.209907
0.718	0.288853
0.917	0.365742
1.426	0.552165
1.923	0.727566
2.916	1.05965
3.922	1.36168
4.926	1.62907
7.421	2.13137
9.922	2.57993
14.913	3.16404
19.912	3.44616
24.908	3.66376
29.903	3.81207
34.884	3.91599
39.883	3.98985
44.878	4.03902
49.872	4.06885
63.518	4.08398
