Adsorption isotherm of Methane on NIST RM-8850
DOI: 10.1007/s10450-020-00253-0
Article source: Figure S6
Adsorbate Methane: InChIKey VNWKTOKETHGBQD-UHFFFAOYSA-N
Kind: experiment
Isotherm type: excess
Temperature: 298 K
Tabular data in the source: 1
pressure (bar)	uptake (mmol/g)
0.315283	0.11727
0.845528	0.315807
1.51774	0.560678
4.18746	1.42037
6.34908	1.97639
8.04496	2.32788
9.3361	2.55461
10.3258	2.70743
12.0959	2.9417
14.0969	3.1595
16.098	3.33882
18.0811	3.48742
20.0754	3.61602
22.0626	3.72337
24.0531	3.81584
26.0501	3.89536
28.0406	3.96473
30.0734	4.02563
34.5358	4.13163
39.0241	4.21029
43.5015	4.26506
47.9572	4.3013
52.46	4.32377
56.8969	4.33461
61.4391	4.33413
65.9446	4.32512
70.3858	4.30585
74.9037	4.27027
