Adsorption isotherm of Methane on NIST RM-8850
DOI: 10.1007/s10450-020-00253-0
Article source: Figure S8
Adsorbate Methane: InChIKey VNWKTOKETHGBQD-UHFFFAOYSA-N
Kind: experiment
Isotherm type: excess
Temperature: 298 K
Tabular data in the source: 1
pressure (bar)	uptake (mmol/g)
0	0
1.03	0.402728
2.02	0.760236
3.02	1.09094
4.03	1.3875
5.02	1.65298
6.02	1.88654
7.02	2.09371
8.01	2.27541
9.01	2.44131
10.01	2.58215
12.01	2.82571
14	3.02148
16	3.1801
18	3.31179
19.99	3.42282
21.88	3.50993
23.75	3.58686
25.88	3.65382
27.88	3.70923
29.88	3.75861
34.39	3.84161
38.75	3.89662
43.03	3.93102
47.53	3.95396
52.03	3.96373
56.54	3.96332
61.03	3.95352
65.53	3.93706
70.03	3.91364
74.53	3.88587
