Adsorption isotherm of Methane on NIST RM-8850
DOI: 10.1007/s10450-020-00253-0
Article source: Figure S9
Adsorbate Methane: InChIKey VNWKTOKETHGBQD-UHFFFAOYSA-N
Kind: experiment
Isotherm type: excess
Temperature: 298 K
Tabular data in the source: 1
pressure (bar)	uptake (mmol/g)
0.048727	0.018997
0.090512	0.035287
0.131291	0.05107
0.172094	0.066775
0.213005	0.08246
0.252998	0.097709
0.2942	0.113393
0.334316	0.128614
0.375406	0.144148
0.41591	0.159418
0.456088	0.174495
0.496387	0.189582
0.536844	0.204694
0.577291	0.219761
0.618563	0.235077
0.659253	0.250125
0.698875	0.264728
0.740169	0.279945
0.780334	0.29475
0.820893	0.309489
0.861413	0.324289
0.902121	0.339134
0.94241	0.353741
0.982984	0.368511
1.02356	0.383203
1.06418	0.397784
1.1047	0.412376
1.1212	0.418434
