Adsorption isotherm of Methane on NIST RM-8850
DOI: 10.1007/s10450-020-00253-0
Article source: Figure S9
Adsorbate Methane: InChIKey VNWKTOKETHGBQD-UHFFFAOYSA-N
Kind: experiment
Isotherm type: excess
Temperature: 298 K
Tabular data in the source: 1
pressure (bar)	uptake (mmol/g)
0.000764	0.000575
0.702162	0.283342
1.67921	0.65316
2.68818	1.00654
3.73602	1.33904
4.78268	1.63278
5.91563	1.91092
6.91989	2.12602
7.89622	2.31029
8.93838	2.48398
10.2345	2.67183
12.14	2.90054
14.0222	3.08629
16.2033	3.25701
17.9796	3.37543
20.1208	3.49608
22.2407	3.59032
24.2604	3.67155
26.3214	3.74288
28.3491	3.79384
30.3711	3.84799
35.0261	3.92857
39.5349	3.995
44.1294	4.02237
48.7832	4.06027
53.2393	4.06992
57.8692	4.07468
62.361	4.05913
66.8458	4.05103
