Adsorption isotherm of Methane on NIST RM-8850
DOI: 10.1007/s10450-020-00253-0
Article source: Figure S10
Adsorbate Methane: InChIKey VNWKTOKETHGBQD-UHFFFAOYSA-N
Kind: experiment
Isotherm type: excess
Temperature: 298 K
Tabular data in the source: 1
pressure (bar)	uptake (mmol/g)
0	0.017068
1.00029	0.416079
2.00499	0.794173
3.00535	1.14256
4.00708	1.49433
5.00206	1.76566
5.99828	2.00887
7.00615	2.2248
7.99596	2.41667
8.99728	2.58989
10.0366	2.74293
12.0812	3.00373
14.0634	3.18725
16.033	3.35682
18.3231	3.54131
20.1239	3.63516
22.0275	3.74959
24.0291	3.80468
26.0671	3.85543
27.999	3.91844
30.0337	3.97135
34.5446	4.0803
39.1827	4.14858
43.465	4.22116
48.0331	4.26275
52.5559	4.29578
56.9976	4.31136
61.5409	4.3287
65.982	4.37232
