Adsorption isotherm of Methane on NIST RM-8850
DOI: 10.1007/s10450-020-00253-0
Article source: Figure S6
Adsorbate Methane: InChIKey VNWKTOKETHGBQD-UHFFFAOYSA-N
Kind: experiment
Isotherm type: excess
Temperature: 298 K
Tabular data in the source: 1
pressure (bar)	uptake (mmol/g)
0	0
1.01	0.40602
2.04	0.770781
3.05	1.09701
4.01	1.38113
5.05	1.65837
6.07	1.89404
7.04	2.09276
8.08	2.28099
9.1	2.44723
10.03	2.5871
12.01	2.82683
14.04	3.02558
16.01	3.19376
18.05	3.32802
20.01	3.43489
22.01	3.52843
24.04	3.61179
26.02	3.68035
28.02	3.75801
30.01	3.80859
34.51	3.89942
39.02	3.96025
43.51	4.00356
48.01	4.02868
52.52	4.03719
57	4.0408
61.51	4.03619
66.02	4.02215
70.53	4.00577
75.02	3.982
