Adsorption isotherm of Methane on NIST RM-8850
DOI: 10.1007/s10450-020-00253-0
Article source: Figure S10
Adsorbate Methane: InChIKey VNWKTOKETHGBQD-UHFFFAOYSA-N
Kind: experiment
Isotherm type: excess
Temperature: 298 K
Tabular data in the source: 1
pressure (bar)	uptake (mmol/g)
0	0
0.262658	0.102374
0.651612	0.244659
1.39474	0.511312
2.18659	0.781702
3.217	1.10126
4.20305	1.3786
5.20699	1.62755
6.21041	1.85038
7.14311	2.03077
8.12762	2.20299
9.21217	2.36967
10.7767	2.57921
12.6917	2.78825
14.5932	2.95895
16.4531	3.09672
18.527	3.22448
20.5483	3.32493
21.885	3.38952
23.1066	3.43951
24.6757	3.50196
26.5289	3.56249
28.6141	3.62139
31.9287	3.70112
35.9868	3.78107
40.2247	3.83732
44.8338	3.8834
49.1394	3.91559
53.6499	3.92798
58.2874	3.96389
62.685	3.99236
66.8614	4.00134
71.4417	3.97329
