Adsorption isotherm of Methane on NIST RM-8850
DOI: 10.1007/s10450-020-00253-0
Article source: Figure S9
Adsorbate Methane: InChIKey VNWKTOKETHGBQD-UHFFFAOYSA-N
Kind: experiment
Isotherm type: excess
Temperature: 298 K
Tabular data in the source: 1
pressure (bar)	uptake (mmol/g)
0.306584	0.118576
0.529994	0.206641
0.698621	0.271264
0.825227	0.319128
0.919452	0.35441
0.986092	0.378922
1.55447	0.583709
1.83161	0.680561
2.52142	0.909913
2.83762	1.01189
3.58021	1.23585
3.89058	1.32537
4.6483	1.52963
4.93138	1.60175
5.72996	1.79056
6.65939	1.99081
6.93939	2.04595
7.73264	2.19241
8.80863	2.3704
9.81174	2.51891
11.8269	2.76623
13.7533	2.95403
15.7545	3.11898
17.7897	3.2546
19.5928	3.3548
22.0729	3.4744
24.1945	3.55522
26.2279	3.61951
28.1977	3.67442
30.119	3.7197
34.1096	3.79349
38.572	3.85121
42.975	3.89228
43.5334	3.89647
47.5868	3.91638
51.9385	3.92559
56.4985	3.92029
60.9658	3.91129
65.3442	3.91104
69.9241	3.88481
74.2632	3.87365
