Adsorption isotherm of Methane on NIST RM-8850
DOI: 10.1007/s10450-020-00253-0
Article source: Figure S8
Adsorbate Methane: InChIKey VNWKTOKETHGBQD-UHFFFAOYSA-N
Kind: experiment
Isotherm type: excess
Temperature: 298 K
Tabular data in the source: 1
pressure (bar)	uptake (mmol/g)
0	0
1.38347	0.500575
2.77994	0.9477
4.16991	1.37687
5.61833	1.73112
7.10573	2.08214
8.65158	2.35166
10.2494	2.60729
11.8147	2.82117
13.4548	3.0224
15.111	3.13664
16.7868	3.25935
18.4138	3.38753
20.0474	3.49822
21.7037	3.57047
23.3924	3.67334
25.0876	3.72956
26.7407	3.81814
28.4554	3.83915
30.1182	3.89395
31.8199	3.90299
33.5346	3.90626
35.2331	3.93347
36.9511	3.92188
38.6528	3.95529
40.3773	3.95717
42.0693	3.9397
43.7808	3.96545
45.5052	3.95294
47.207	3.92682
48.9574	3.9309
50.6235	3.90058
52.3609	3.94291
54.0562	3.94349
55.7871	3.88227
57.4077	3.91198
59.1744	3.7955
60.8079	3.76429
62.4804	3.71011
64.1627	3.67283
65.8514	3.5991
67.5499	3.58148
69.2159	3.55216
70.8462	3.52038
72.4895	3.53162
74.1523	3.42634
75.7663	3.43423
