Adsorption isotherm of Methane on NIST RM-8850
DOI: 10.1007/s10450-020-00253-0
Article source: Figure S10
Adsorbate Methane: InChIKey VNWKTOKETHGBQD-UHFFFAOYSA-N
Kind: experiment
Isotherm type: excess
Temperature: 298 K
Tabular data in the source: 1
pressure (bar)	uptake (mmol/g)
0	0
0.496569	0.192746
1.26988	0.472825
2.16567	0.778205
3.10861	1.07249
4.08454	1.35068
5.08175	1.59969
6.07918	1.82183
7.13849	2.0313
8.13686	2.2066
9.14728	2.36133
10.7207	2.56828
12.5603	2.77162
14.518	2.94997
16.4359	3.08961
18.4351	3.20973
20.4855	3.31784
22.5742	3.4183
24.5035	3.50036
26.4419	3.56283
28.5363	3.62357
31.9921	3.72485
36.0507	3.78668
40.3342	3.83311
44.7907	3.86822
49.3019	3.88035
53.7721	3.90569
58.2098	3.9212
62.7217	3.94732
67.157	3.96788
71.5369	3.97197
