Adsorption isotherm of Methane on NIST RM-8850
DOI: 10.1007/s10450-020-00253-0
Article source: Figure S8
Adsorbate Methane: InChIKey VNWKTOKETHGBQD-UHFFFAOYSA-N
Kind: experiment
Isotherm type: excess
Temperature: 298 K
Tabular data in the source: 1
pressure (bar)	uptake (mmol/g)
0	0
1.0215	0.407265
2.0195	0.769082
3.0175	1.10691
4.0325	1.41085
5.0625	1.69039
6.0725	1.92365
7.0125	2.1188
8.0525	2.31607
8.9825	2.4766
10.0525	2.62918
12.0325	2.86732
13.9325	3.07067
16.0425	3.23249
18.0925	3.3621
19.9825	3.46535
22.0475	3.56777
24.0125	3.64677
26.0225	3.72128
27.9775	3.7801
30.0625	3.83135
34.4725	3.9121
38.4625	3.97029
43.3125	4.01974
47.8125	4.05526
52.5125	4.06576
57.2625	4.0839
62.2625	4.08917
66.2125	4.09359
70.6125	4.10743
75.3125	4.09804
