Adsorption isotherm of Methane on NIST RM-8850
DOI: 10.1007/s10450-020-00253-0
Article source: Figure S6
Adsorbate Methane: InChIKey VNWKTOKETHGBQD-UHFFFAOYSA-N
Kind: experiment
Isotherm type: excess
Temperature: 298 K
Tabular data in the source: 1
pressure (bar)	uptake (mmol/g)
0.652233	0.252046
0.959455	0.36577
2.03792	0.738232
2.9077	1.0086
4.00594	1.31534
4.92278	1.54655
6.02666	1.79215
7.03368	1.99469
7.92507	2.15475
8.88564	2.31411
9.89857	2.44136
11.9257	2.67947
13.94	2.86751
15.8757	3.01929
17.9793	3.15255
19.9176	3.24742
22.2903	3.3424
24.2738	3.40902
26.2832	3.47937
28.0473	3.52861
30.2124	3.5796
34.1668	3.64824
38.5634	3.70126
43.1038	3.74168
47.5564	3.76551
52.0185	3.77941
56.5009	3.79093
60.9755	3.79347
65.4793	3.79017
69.8985	3.79743
74.4088	3.772
