Adsorption isotherm of Methane on NIST RM-8850
DOI: 10.1007/s10450-020-00253-0
Article source: Figure S10
Adsorbate Methane: InChIKey VNWKTOKETHGBQD-UHFFFAOYSA-N
Kind: experiment
Isotherm type: excess
Temperature: 298 K
Tabular data in the source: 1
pressure (bar)	uptake (mmol/g)
0	0
0.507979	0.194645
1.34601	0.498244
2.25383	0.807211
3.22964	1.11102
4.20257	1.38231
5.17051	1.6234
6.19348	1.84818
7.21341	2.049
8.23393	2.22332
9.22317	2.37321
10.8215	2.58169
12.6248	2.7787
14.5019	2.9476
16.626	3.10643
18.677	3.23139
20.6489	3.33458
22.5319	3.42236
24.5195	3.50236
26.5342	3.56822
28.5144	3.62499
31.9591	3.70135
36.3525	3.77703
40.5733	3.83664
44.9281	3.87706
49.3057	3.89318
53.7315	3.93515
58.1603	3.97363
62.6194	4.0032
66.7099	4.00139
71.5621	3.96763
