Adsorption isotherm of Methane on NIST RM-8850
DOI: 10.1007/s10450-020-00253-0
Article source: Figure S8
Adsorbate Methane: InChIKey VNWKTOKETHGBQD-UHFFFAOYSA-N
Kind: experiment
Isotherm type: excess
Temperature: 298 K
Tabular data in the source: 1
pressure (bar)	uptake (mmol/g)
0	0
0.526	0.210267
0.977	0.387382
1.5035	0.589442
2.031	0.773541
2.516	0.941648
2.984	1.0963
3.502	1.25849
4.006	1.40898
4.457	1.53619
4.697	1.6017
4.7907	1.62613
5.89129	1.89401
6.98891	2.12665
8.07957	2.33436
9.11461	2.51001
10.0007	2.64381
12.1273	2.91301
14.0057	3.1027
15.9109	3.25897
18.0217	3.40603
20.0202	3.52334
22.0059	3.62009
23.9955	3.70087
26.0258	3.77786
28.0343	3.84636
29.9783	3.89758
30.7016	3.91757
34.2262	3.99916
38.8414	4.06249
43.4627	4.12531
48.0252	4.17271
52.4595	4.1835
56.9842	4.19987
61.5607	4.21903
65.9393	4.2219
70.4263	4.23081
74.8944	4.21729
