Adsorption isotherm of Methane on NIST RM-8850
DOI: 10.1007/s10450-020-00253-0
Article source: Figure S7
Adsorbate Methane: InChIKey VNWKTOKETHGBQD-UHFFFAOYSA-N
Kind: experiment
Isotherm type: excess
Temperature: 298 K
Tabular data in the source: 1
pressure (bar)	uptake (mmol/g)
0	0
0.295296	0.24474
0.672618	0.37835
1.0401	0.5159
1.38133	0.6439
1.72912	0.76096
2.09332	0.88988
2.8939	1.14621
3.73385	1.4037
4.58037	1.64082
5.43673	1.84124
6.2898	2.03054
7.15272	2.1787
7.85815	2.30943
8.92122	2.49167
10.0237	2.64713
11.7757	2.85891
13.5213	3.04007
15.736	3.21145
17.7046	3.34011
20.3557	3.50255
22.9937	3.61623
25.6547	3.71327
28.3025	3.77292
31.1767	3.83266
34.2773	3.89746
37.8012	3.9483
41.7712	3.99123
45.7118	3.98982
49.6261	3.98145
53.524	3.99626
57.4383	3.98154
61.3133	3.94264
65.5918	3.9392
69.8375	3.88989
74.0668	3.82966
