Adsorption isotherm of Methane on NIST RM-8850
DOI: 10.1007/s10450-020-00253-0
Article source: Figure S7
Adsorbate Methane: InChIKey VNWKTOKETHGBQD-UHFFFAOYSA-N
Kind: experiment
Isotherm type: excess
Temperature: 298 K
Tabular data in the source: 1
pressure (bar)	uptake (mmol/g)
0	0
1.06791	0.397303
2.03183	0.735781
3.03042	1.05899
4.04233	1.35829
5.03425	1.61352
6.04484	1.85089
7.02076	2.05185
8.04601	2.24143
9.02592	2.39933
10.0312	2.55092
11.9444	2.78724
14.0442	2.99944
15.984	3.16364
18.1705	3.30714
19.9704	3.41629
21.9995	3.51021
24.1207	3.60177
26.0192	3.6703
28.0284	3.73013
30.1015	3.78356
34.3368	3.87724
38.8642	3.95254
43.3917	3.99385
47.7898	4.03238
52.2526	4.05097
56.7801	4.06251
61.2429	4.06249
65.9644	4.06231
70.2979	4.04467
74.5666	4.028
