Adsorption isotherm of Methane on NIST RM-8850
DOI: 10.1007/s10450-020-00253-0
Article source: Figure S9
Adsorbate Methane: InChIKey VNWKTOKETHGBQD-UHFFFAOYSA-N
Kind: experiment
Isotherm type: excess
Temperature: 298 K
Tabular data in the source: 1
pressure (bar)	uptake (mmol/g)
0.010865	0
0.417959	0.16203
0.612955	0.236458
0.813606	0.312624
1.40908	0.530453
2.40585	0.876461
3.40359	1.19586
4.40146	1.4809
5.40044	1.73284
6.39915	1.95661
7.39785	2.15084
8.39697	2.32812
9.39912	2.48461
10.3982	2.62184
11.3994	2.74654
12.3979	2.85636
13.3972	2.95728
14.3955	3.04417
15.3942	3.12511
16.396	3.19771
17.3956	3.26584
18.3938	3.32623
19.3932	3.38251
