Adsorption isotherm of Methane on NIST RM-8850
DOI: 10.1007/s10450-020-00253-0
Article source: Figure S9
Adsorbate Methane: InChIKey VNWKTOKETHGBQD-UHFFFAOYSA-N
Kind: experiment
Isotherm type: excess
Temperature: 298 K
Tabular data in the source: 1
pressure (bar)	uptake (mmol/g)
0.751	0.293
1.459	0.5626
2.141	0.8028
2.983	1.0821
3.83	1.3367
4.682	1.5772
5.543	1.7843
6.408	1.9787
7.271	2.1462
8.145	2.3054
9.023	2.4467
9.903	2.5746
10.777	2.6916
11.972	2.8306
14.062	3.0314
16.114	3.1953
18.113	3.3285
20.059	3.4359
21.944	3.5189
23.779	3.5945
25.563	3.6552
27.286	3.7134
28.963	3.7548
30.592	3.792
33.953	3.8491
37.314	3.8985
40.676	3.9334
44.048	3.9501
47.419	3.9706
50.783	3.9815
54.148	3.9816
57.518	3.9799
60.889	3.9679
64.248	3.9617
67.606	3.951
70.97	3.9271
74.336	3.9082
77.705	3.8822
