Adsorption isotherm of Methane on NIST RM-8850
DOI: 10.1007/s10450-020-00253-0
Article source: Figure S7
Adsorbate Methane: InChIKey VNWKTOKETHGBQD-UHFFFAOYSA-N
Kind: experiment
Isotherm type: excess
Temperature: 298 K
Tabular data in the source: 1
pressure (bar)	uptake (mmol/g)
0	0
0.154006	0.065273
0.301411	0.127997
0.447716	0.188615
0.596222	0.248726
0.745827	0.308895
0.894333	0.369583
1.04284	0.428687
1.19464	0.487966
1.48065	0.598534
1.87557	0.746384
2.20228	0.866052
2.51799	0.977845
3.01851	1.1488
3.52893	1.31454
4.08555	1.48474
4.63117	1.64163
5.18779	1.79192
5.75871	1.93564
6.56724	2.12266
7.52758	2.32183
8.41641	2.48699
9.47135	2.66091
10.578	2.8222
11.9035	2.99073
13.4095	3.15555
15.0155	3.30493
16.6612	3.43562
18.3729	3.55192
20.1208	3.65355
