Adsorption isotherm of Methane on NIST RM-8850
DOI: 10.1007/s10450-020-00253-0
Article source: Figure S6
Adsorbate Methane: InChIKey VNWKTOKETHGBQD-UHFFFAOYSA-N
Kind: experiment
Isotherm type: excess
Temperature: 298 K
Tabular data in the source: 1
pressure (bar)	uptake (mmol/g)
0	0
1	0.437674
2.01	0.805013
3.01	1.13813
4.04	1.44655
5.04	1.70986
6.02	1.94
7.02	2.14684
8.08	2.34243
9.08	2.50694
10.08	2.64981
12.03	2.8828
14.02	3.07879
16.03	3.24169
18.03	3.37422
20.02	3.48464
22.03	3.58178
24.01	3.66313
26.03	3.7328
28.02	3.79296
30.03	3.84377
34.54	3.93163
39.03	3.99626
43.51	4.03532
48	4.06156
52.5	4.07446
57.02	4.07614
61.53	4.069
66.02	4.0549
70.53	4.03479
75.02	4.0155
