Adsorption isotherm of Methane on NIST RM-8850
DOI: 10.1007/s10450-020-00253-0
Article source: Figure S8
Adsorbate Methane: InChIKey VNWKTOKETHGBQD-UHFFFAOYSA-N
Kind: experiment
Isotherm type: excess
Temperature: 298 K
Tabular data in the source: 1
pressure (bar)	uptake (mmol/g)
0	0
4.616	0.7854
11.513	1.0546
17.281	1.1796
21.859	1.2714
25.735	1.3296
29.366	1.3671
32.998	1.3963
36.843	1.4328
41.208	1.4813
46.457	1.5493
52.194	1.6054
57.962	1.6531
64.219	1.6792
70.811	1.7252
77.403	1.8372
