Adsorption isotherm of Methane on NIST RM-8850
DOI: 10.1007/s10450-020-00253-0
Article source: Figure S6
Adsorbate Methane: InChIKey VNWKTOKETHGBQD-UHFFFAOYSA-N
Kind: experiment
Isotherm type: excess
Temperature: 298 K
Tabular data in the source: 1
pressure (bar)	uptake (mmol/g)
0	0.0008
1.0027	0.4111
2.0027	0.7779
3.0022	1.1143
4.002	1.4212
5.0018	1.6978
6.0011	1.9444
7.0005	2.1656
8.0001	2.3646
9.0001	2.5436
9.6999	2.6806
