Adsorption isotherm of Methane on NIST RM-8850
DOI: 10.1007/s10450-020-00253-0
Article source: Figure S7
Adsorbate Methane: InChIKey VNWKTOKETHGBQD-UHFFFAOYSA-N
Kind: experiment
Isotherm type: excess
Temperature: 298 K
Tabular data in the source: 1
pressure (bar)	uptake (mmol/g)
0	0
0.197109	0.084664
0.395739	0.167178
0.596027	0.245506
0.798803	0.32354
0.995497	0.398562
1.49587	0.583023
1.9939	0.759503
2.99727	1.09099
3.99498	1.38534
4.99767	1.65044
5.99703	1.88737
6.99848	2.09526
7.99522	2.28098
8.99859	2.44526
9.99892	2.58946
11.999	2.84274
13.9989	3.039
15.9985	3.20038
17.9958	3.33689
19.4938	3.4179
