Adsorption isotherm of Methane on NIST RM-8850
DOI: 10.1007/s10450-020-00253-0
Article source: Figure S7
Adsorbate Methane: InChIKey VNWKTOKETHGBQD-UHFFFAOYSA-N
Kind: experiment
Isotherm type: excess
Temperature: 298 K
Tabular data in the source: 1
pressure (bar)	uptake (mmol/g)
0	0
1.04525	0.393653
2.04517	0.748097
3.03042	1.07103
4.02767	1.36483
5.02492	1.62374
6.02084	1.86165
7.03809	2.0717
8.03801	2.25923
8.97126	2.41778
10.0365	2.5756
12.0097	2.82381
14.0095	3.02549
16.0427	3.19542
18.0132	3.32932
20.021	3.44722
22.0355	3.54136
24.0314	3.62855
26.0019	3.70247
28.055	3.76212
29.9589	3.81599
34.4014	3.90922
39.1876	3.98805
43.6504	4.03481
47.9839	4.06639
52.4467	4.0871
56.9095	4.09472
61.5016	4.09723
65.9644	4.09887
70.1038	4.08612
74.4373	4.07168
