Adsorption isotherm of Methane on NIST RM-8850
DOI: 10.1007/s10450-020-00253-0
Article source: Figure S9
Adsorbate Methane: InChIKey VNWKTOKETHGBQD-UHFFFAOYSA-N
Kind: experiment
Isotherm type: excess
Temperature: 298 K
Tabular data in the source: 1
pressure (bar)	uptake (mmol/g)
0.01335	0.005625
0.052143	0.02177
0.091244	0.037927
0.131741	0.054528
0.172225	0.071017
0.212698	0.087402
0.253242	0.103762
0.293922	0.120109
0.334342	0.136245
0.374412	0.152191
0.414911	0.168255
0.455807	0.184275
0.49677	0.20038
0.53751	0.21629
0.577855	0.232097
0.617649	0.247427
0.658372	0.263311
0.699036	0.27891
0.739639	0.294539
0.780884	0.310339
0.820783	0.325489
0.861243	0.34087
0.902297	0.356355
0.942771	0.37168
0.983255	0.386874
1.0242	0.402262
1.06417	0.417289
1.10563	0.432801
1.12195	0.438797
