Adsorption isotherm of Methane on NIST RM-8850
DOI: 10.1007/s10450-020-00253-0
Article source: Figure S6
Adsorbate Methane: InChIKey VNWKTOKETHGBQD-UHFFFAOYSA-N
Kind: experiment
Isotherm type: excess
Temperature: 298 K
Tabular data in the source: 1
pressure (bar)	uptake (mmol/g)
0	0
0.9909	0.4044
2.0006	0.7727
3.0003	1.108
4.0002	1.4123
5.0005	1.6905
6.0017	1.9356
7.0007	2.1553
8.0009	2.3544
8.9999	2.5299
9.5002	2.612
