Adsorption isotherm of Methane on NIST RM-8850
DOI: 10.1007/s10450-020-00253-0
Article source: Figure S7
Adsorbate Methane: InChIKey VNWKTOKETHGBQD-UHFFFAOYSA-N
Kind: experiment
Isotherm type: excess
Temperature: 298 K
Tabular data in the source: 1
pressure (bar)	uptake (mmol/g)
0.181432	0.07363
0.91749	0.358677
1.63721	0.621207
2.35024	0.866174
3.03485	1.08615
3.70595	1.28701
4.35782	1.46985
4.99115	1.63416
5.59922	1.77938
6.49767	1.9753
7.40538	2.15634
8.32621	2.31844
9.24629	2.46374
10.1834	2.59555
12.0414	2.8198
13.9383	3.00597
15.8457	3.16224
17.7727	3.29159
19.6993	3.40107
21.6467	3.4969
23.59	3.58087
25.5418	3.64676
27.4983	3.70637
29.4545	3.75706
31.4061	3.80031
33.6118	3.84353
35.8331	3.88084
38.039	3.91438
40.2521	3.93661
42.4695	3.95454
44.6796	3.97045
46.8909	3.98101
49.0991	3.99098
51.3131	3.99349
53.5275	3.99382
55.7394	3.99067
57.9512	3.98742
60.1686	3.98064
62.3859	3.96989
64.6021	3.95803
66.8215	3.94526
