Adsorption isotherm of Methane on NIST RM-8850
DOI: 10.1007/s10450-020-00253-0
Article source: Figure S7
Adsorbate Methane: InChIKey VNWKTOKETHGBQD-UHFFFAOYSA-N
Kind: experiment
Isotherm type: excess
Temperature: 298 K
Tabular data in the source: 1
pressure (bar)	uptake (mmol/g)
0	0
0.157306	0.062891
0.308011	0.124446
0.616023	0.248641
0.924034	0.372066
1.23644	0.493549
1.54116	0.609952
1.83707	0.719624
2.13298	0.827017
2.44649	0.93764
2.7622	1.04641
3.07791	1.15176
3.64773	1.33264
4.16915	1.48861
4.68617	1.63553
5.33299	1.80628
5.90392	1.94616
6.70694	2.12759
7.52537	2.29558
8.52091	2.47871
9.46255	2.63221
10.5483	2.78964
11.9882	2.97151
13.4876	3.13294
14.8912	3.2629
16.3521	3.38062
18.0319	3.497
19.7567	3.59955
21.5212	3.68817
