Adsorption isotherm of Methane on NIST RM-8850
DOI: 10.1007/s10450-020-00253-0
Article source: Figure S9
Adsorbate Methane: InChIKey VNWKTOKETHGBQD-UHFFFAOYSA-N
Kind: experiment
Isotherm type: excess
Temperature: 298 K
Tabular data in the source: 1
pressure (bar)	uptake (mmol/g)
0.754	0.2981
1.484	0.5737
2.153	0.8113
2.993	1.0902
3.845	1.3399
4.702	1.5792
5.565	1.7904
6.432	1.9833
7.3	2.1623
8.172	2.32
9.047	2.4578
9.92	2.5874
10.798	2.7038
12	2.8421
14.098	3.0479
16.151	3.211
18.143	3.3345
20.088	3.4467
21.974	3.5286
23.806	3.605
25.597	3.662
27.321	3.7187
28.995	3.759
30.628	3.8018
33.99	3.8556
37.349	3.9043
40.717	3.9364
44.085	3.9623
47.442	3.9787
50.805	3.9965
54.165	4.0026
57.528	4.0003
60.889	3.994
64.248	3.9795
67.61	3.9759
70.976	3.9625
74.351	3.9503
77.722	3.9202
