Adsorption isotherm of Methane on NIST RM-8850
DOI: 10.1007/s10450-020-00253-0
Article source: Figure S7
Adsorbate Methane: InChIKey VNWKTOKETHGBQD-UHFFFAOYSA-N
Kind: experiment
Isotherm type: excess
Temperature: 298 K
Tabular data in the source: 1
pressure (bar)	uptake (mmol/g)
0	0
1.02792	0.385848
2.0305	0.742471
3.01975	1.06614
4.041	1.36373
5.01559	1.61636
6.03017	1.85728
7.00742	2.06187
8.02734	2.25094
9.03526	2.41424
10.0405	2.56329
11.9284	2.80208
14.0615	3.015
16.004	3.17459
18.0918	3.31495
20.021	3.42838
22.0022	3.52271
24.062	3.61169
25.9992	3.68594
28.0684	3.7444
30.0415	3.79782
34.2721	3.89493
38.9289	3.96919
43.5211	4.01519
47.9839	4.04808
52.4467	4.07005
56.7154	4.0758
61.4369	4.07981
65.8997	4.0764
70.2979	4.06201
74.7607	4.0449
