Adsorption isotherm of Methane on NIST RM-8850
DOI: 10.1007/s10450-020-00253-0
Article source: Figure S7
Adsorbate Methane: InChIKey VNWKTOKETHGBQD-UHFFFAOYSA-N
Kind: experiment
Isotherm type: excess
Temperature: 298 K
Tabular data in the source: 1
pressure (bar)	uptake (mmol/g)
0	0
0.311701	0.20713
0.675899	0.33935
1.4043	0.61779
2.19831	0.89787
3.21544	1.22941
4.44256	1.57967
5.64671	1.88114
6.91321	2.13923
8.00252	2.33106
9.08855	2.51319
10.1647	2.65685
11.9004	2.85839
13.6263	3.05022
15.8147	3.23085
18.0032	3.39032
20.1786	3.51094
22.3506	3.61172
24.9591	3.71123
27.5642	3.79146
30.6255	3.87058
33.7129	3.91422
36.7676	3.97269
39.8026	3.9926
43.2641	4.01977
46.683	4.04449
50.1051	4.02983
53.5339	4.0543
57.4022	4.04987
61.2476	4.04107
65.5098	4.01788
69.739	3.98046
73.9191	3.93936
