Adsorption isotherm of Methane on NIST RM-8850
DOI: 10.1007/s10450-020-00253-0
Article source: Figure S7
Adsorbate Methane: InChIKey VNWKTOKETHGBQD-UHFFFAOYSA-N
Kind: experiment
Isotherm type: excess
Temperature: 298 K
Tabular data in the source: 1
pressure (bar)	uptake (mmol/g)
0	0
0.289311	0.123437
0.585221	0.246072
0.882232	0.367375
1.18034	0.485642
1.68306	0.679831
2.13188	0.846839
2.6005	1.01339
3.07681	1.17584
3.59163	1.3423
4.10205	1.49815
4.72137	1.67582
5.26589	1.82133
5.83681	1.96389
6.60684	2.14115
7.51988	2.33044
8.48901	2.50994
9.51535	2.6788
10.5923	2.83511
11.8947	2.99975
13.2467	3.14871
14.6558	3.28287
16.2564	3.41435
17.9362	3.53274
19.6423	3.6358
21.3947	3.72592
