Adsorption isotherm of Methane on NIST RM-8850
DOI: 10.1007/s10450-020-00253-0
Article source: Figure S6
Adsorbate Methane: InChIKey VNWKTOKETHGBQD-UHFFFAOYSA-N
Kind: experiment
Isotherm type: excess
Temperature: 298 K
Tabular data in the source: 1
pressure (bar)	uptake (mmol/g)
0	0
1.01	0.406421
2.01	0.77041
3.01	1.09815
4.02	1.39317
5.03	1.65808
6	1.8855
7.04	2.09907
8.02	2.2804
9.05	2.44607
10.02	2.5855
12.07	2.83489
14.04	3.02801
16.07	3.19107
18	3.32239
20.05	3.43918
22.04	3.53503
24.02	3.61569
26.03	3.68663
28.03	3.74709
30.01	3.79836
34.51	3.89189
39.03	3.9575
43.5	3.99854
48.02	4.02339
52.5	4.04147
57.02	4.04469
61.52	4.0408
66.02	4.03306
70.51	4.01563
75.02	3.99131
