Adsorption isotherm of Methane on NIST RM-8850
DOI: 10.1007/s10450-020-00253-0
Article source: Figure S6
Adsorbate Methane: InChIKey VNWKTOKETHGBQD-UHFFFAOYSA-N
Kind: experiment
Isotherm type: excess
Temperature: 298 K
Tabular data in the source: 1
pressure (bar)	uptake (mmol/g)
0.540205	0.205328
0.872173	0.326629
1.017	0.378147
2.04209	0.719384
2.96807	1.00127
3.98788	1.28183
5.00066	1.52605
5.96524	1.73163
6.93203	1.9091
8.04733	2.11295
8.96824	2.24665
9.88947	2.37446
11.9125	2.61052
14.0017	2.80492
15.8878	2.95657
18.0076	3.09021
20.2029	3.20498
22.0652	3.28401
24.1408	3.36723
25.8459	3.42653
28.2579	3.49434
29.7535	3.53688
34.2783	3.62888
38.6663	3.67887
43.0714	3.73251
47.5461	3.75094
52.0469	3.75963
56.5681	3.75004
60.9714	3.77453
65.4482	3.77415
70.2818	3.76856
74.9312	3.73798
