Adsorption isotherm of Methane on NIST RM-8850
DOI: 10.1007/s10450-020-00253-0
Article source: Figure S7
Adsorbate Methane: InChIKey VNWKTOKETHGBQD-UHFFFAOYSA-N
Kind: experiment
Isotherm type: excess
Temperature: 298 K
Tabular data in the source: 1
pressure (bar)	uptake (mmol/g)
0	0
0.198629	0.103824
0.398503	0.206413
0.596718	0.292678
0.7959	0.374669
1.00047	0.453626
1.49864	0.644609
1.99804	0.823299
2.99824	1.15715
3.9983	1.45217
4.99601	1.71344
6.00008	1.94474
6.99903	2.14971
8.00075	2.33193
8.99873	2.49177
9.99713	2.63384
12.0006	2.88153
14.0016	3.07222
15.9971	3.22919
18.0294	3.35945
19.5016	3.4372
