Adsorption isotherm of Methane on NIST RM-8850
DOI: 10.1007/s10450-020-00253-0
Article source: Figure S9
Adsorbate Methane: InChIKey VNWKTOKETHGBQD-UHFFFAOYSA-N
Kind: experiment
Isotherm type: excess
Temperature: 298 K
Tabular data in the source: 1
pressure (bar)	uptake (mmol/g)
0.74776	0.29337
1.68612	0.64373
2.69359	0.994314
3.75401	1.32597
4.77456	1.60891
5.93701	1.89345
6.91738	2.10288
7.99433	2.30086
9.01389	2.46998
10.2422	2.64818
11.9082	2.84917
14.201	3.07457
16.0567	3.22424
18.2595	3.36792
20.2434	3.4732
22.2459	3.57117
24.2719	3.64692
26.1955	3.70525
28.4724	3.77875
30.3926	3.82169
35.2756	3.91445
39.3967	3.96377
44.4157	4.0086
48.471	4.02634
53.1336	4.04415
57.8335	4.0461
62.3627	4.02495
66.6007	4.01372
