Adsorption isotherm of Methane on NIST RM-8850
DOI: 10.1007/s10450-020-00253-0
Article source: Figure S7
Adsorbate Methane: InChIKey VNWKTOKETHGBQD-UHFFFAOYSA-N
Kind: experiment
Isotherm type: excess
Temperature: 298 K
Tabular data in the source: 1
pressure (bar)	uptake (mmol/g)
0	0
1.06791	0.403166
2.07983	0.762471
3.01709	1.06602
4.11966	1.39085
5.08492	1.6376
6.01951	1.858
7.04875	2.07118
8.03001	2.25373
8.96993	2.40781
10.0138	2.56575
12.027	2.81618
14.0415	3.02109
16.032	3.18173
18.0252	3.3201
20.1103	3.43838
22.0209	3.53348
24.0447	3.61638
26.0032	3.69202
28.0204	3.75291
29.9975	3.80656
34.5308	3.90593
38.9289	3.97131
43.4564	4.02237
48.0485	4.05806
52.188	4.07909
57.1682	4.09221
61.5663	4.08773
66.0938	4.0876
70.3625	4.0751
74.9547	4.08476
