Adsorption isotherm of Methane on NIST RM-8850
DOI: 10.1007/s10450-020-00253-0
Article source: Figure S6
Adsorbate Methane: InChIKey VNWKTOKETHGBQD-UHFFFAOYSA-N
Kind: experiment
Isotherm type: excess
Temperature: 298 K
Tabular data in the source: 1
pressure (bar)	uptake (mmol/g)
0.607495	0.23515
0.945366	0.360328
0.990491	0.377224
2.0977	0.759994
2.94258	1.025
3.98936	1.31749
5.00392	1.57762
5.99986	1.80304
6.88134	1.9833
8.02549	2.19271
8.99372	2.34826
9.91362	2.47326
11.8684	2.70422
13.8529	2.89448
15.8722	3.05094
18.0982	3.1903
20.0865	3.29643
22.3123	3.38713
24.2549	3.45298
25.9674	3.51071
27.7195	3.55937
29.6592	3.60745
34.6806	3.69465
39.2254	3.76403
43.6572	3.79378
47.9933	3.84482
52.3424	3.85356
56.6839	3.87603
61.5437	3.87239
65.9973	3.85463
70.336	3.85447
74.5971	3.82458
