Adsorption isotherm of Methane on NIST RM-8850
DOI: 10.1007/s10450-020-00253-0
Article source: Figure S7
Adsorbate Methane: InChIKey VNWKTOKETHGBQD-UHFFFAOYSA-N
Kind: experiment
Isotherm type: excess
Temperature: 298 K
Tabular data in the source: 1
pressure (bar)	uptake (mmol/g)
0	0
0.145205	0.063069
0.290411	0.125946
0.585221	0.248123
0.877832	0.368117
1.17924	0.487194
1.55766	0.632707
2.07358	0.824428
2.53669	0.990059
2.99761	1.14705
3.58723	1.33697
4.08335	1.48739
4.87098	1.71008
5.6069	1.89915
6.37693	2.07963
7.18436	2.25171
8.1535	2.43686
9.40754	2.64734
10.7441	2.83913
12.151	3.01286
13.6317	3.16887
15.174	3.3083
16.7712	3.43247
18.418	3.54186
20.1263	3.63979
