Adsorption isotherm of Methane on NIST RM-8850
DOI: 10.1007/s10450-020-00253-0
Article source: Figure S8
Adsorbate Methane: InChIKey VNWKTOKETHGBQD-UHFFFAOYSA-N
Kind: experiment
Isotherm type: excess
Temperature: 298 K
Tabular data in the source: 1
pressure (bar)	uptake (mmol/g)
0	0
0.518	0.208247
0.996	0.391598
1.506	0.57568
2.007	0.752844
2.511	0.927998
3.002	1.09081
3.504	1.24707
4.007	1.39774
4.44	1.52377
4.659	1.58966
4.75864	1.62331
5.85052	1.89248
6.92154	2.11429
7.99454	2.31693
9.03377	2.49465
9.94781	2.63227
12.1127	2.90851
14.0103	3.0952
15.8901	3.25264
18.0112	3.40007
19.9913	3.51567
22.0022	3.61031
23.9863	3.69551
25.9843	3.77218
27.9961	3.83736
29.9649	3.89965
34.4697	3.98753
39.1027	4.04498
43.6293	4.10472
48.1668	4.13621
52.5214	4.17295
56.9933	4.19518
61.5269	4.21383
66.0057	4.20164
70.4389	4.20324
74.874	4.21171
