Adsorption isotherm of Methane on NIST RM-8850
DOI: 10.1007/s10450-020-00253-0
Article source: Figure S8
Adsorbate Methane: InChIKey VNWKTOKETHGBQD-UHFFFAOYSA-N
Kind: experiment
Isotherm type: excess
Temperature: 298 K
Tabular data in the source: 1
pressure (bar)	uptake (mmol/g)
0	0
1.0354	0.400864
2.0164	0.751119
3.0164	1.08855
4.0144	1.38844
5.0444	1.66528
6.0544	1.90757
7.0244	2.0993
8.0644	2.308
9.0344	2.46387
10.1144	2.62009
11.9444	2.86184
14.0144	3.07268
16.0544	3.2336
17.9744	3.36304
19.9944	3.4729
22.1244	3.56998
23.9944	3.64483
25.8644	3.70794
28.0944	3.7684
29.9444	3.83221
34.4644	3.92643
39.7644	3.98545
43.5944	4.0016
48.2944	4.04676
53.0944	4.06466
56.9944	4.06589
61.4944	4.05666
67.4944	4.06222
70.4944	4.0711
74.8944	4.07432
