Adsorption isotherm of Methane on NIST RM-8850
DOI: 10.1007/s10450-020-00253-0
Article source: Figure S6
Adsorbate Methane: InChIKey VNWKTOKETHGBQD-UHFFFAOYSA-N
Kind: experiment
Isotherm type: excess
Temperature: 298 K
Tabular data in the source: 1
pressure (bar)	uptake (mmol/g)
0.5452	0.20684
0.870795	0.326061
1.01741	0.3782
2.07496	0.739439
3.03488	1.02344
3.98525	1.28708
4.97819	1.52691
6.0199	1.75628
7.01038	1.94112
8.04573	2.12652
9.03189	2.27623
9.93028	2.40438
11.9574	2.64102
13.9297	2.81684
15.8833	2.96953
17.9739	3.10267
19.7233	3.19185
21.7122	3.28247
24.0843	3.38363
26.1481	3.44174
27.6997	3.48544
29.7206	3.53787
34.1673	3.63946
38.6196	3.69182
43.1326	3.74454
47.5852	3.78222
52.0645	3.81125
56.5623	3.81054
61.0427	3.83384
65.4893	3.82408
69.9781	3.79517
74.3898	3.77108
