Adsorption isotherm of Methane on NIST RM-8850
DOI: 10.1007/s10450-020-00253-0
Article source: Figure S9
Adsorbate Methane: InChIKey VNWKTOKETHGBQD-UHFFFAOYSA-N
Kind: experiment
Isotherm type: excess
Temperature: 298 K
Tabular data in the source: 1
pressure (bar)	uptake (mmol/g)
0.048552	0.019218
0.090915	0.035958
0.131435	0.051828
0.172445	0.067811
0.212441	0.083334
0.253383	0.099168
0.293857	0.114741
0.33427	0.130242
0.374886	0.145756
0.415689	0.16126
0.456111	0.176569
0.496993	0.192013
0.537443	0.207236
0.578128	0.222485
0.617922	0.237361
0.659204	0.252738
0.699056	0.267589
0.740255	0.282897
0.780282	0.297729
0.821087	0.312731
0.861252	0.327425
0.901809	0.342281
0.942578	0.357164
0.982949	0.371932
1.02386	0.386801
1.06419	0.401473
1.10472	0.416181
1.12116	0.422248
