Adsorption isotherm of Methane on NIST RM-8850
DOI: 10.1007/s10450-020-00253-0
Article source: Figure S10
Adsorbate Methane: InChIKey VNWKTOKETHGBQD-UHFFFAOYSA-N
Kind: experiment
Isotherm type: excess
Temperature: 298 K
Tabular data in the source: 1
pressure (bar)	uptake (mmol/g)
0.00201	0.0389
1.0017	0.4226
2.00553	0.7793
2.99993	1.1043
4.00402	1.404
5.00265	1.669
6.0021	1.8988
7.001	2.1049
8.00282	2.2843
8.99953	2.4449
10.0023	2.5884
12.0028	2.8285
14.0042	3.0223
16.0003	3.1761
18.0026	3.3056
20.0009	3.4113
21.9998	3.5007
23.9996	3.5748
25.9993	3.6384
28.0019	3.6895
29.9984	3.7343
34.5053	3.8108
39.0042	3.8597
43.5085	3.8889
48.007	3.9014
52.4978	3.9023
57.0016	3.891
61.4902	3.8738
66.0036	3.8485
70.5083	3.8187
74.9997	3.7817
