Adsorption isotherm of Methane on NIST RM-8850
DOI: 10.1007/s10450-020-00253-0
Article source: Figure S9
Adsorbate Methane: InChIKey VNWKTOKETHGBQD-UHFFFAOYSA-N
Kind: experiment
Isotherm type: excess
Temperature: 298 K
Tabular data in the source: 1
pressure (bar)	uptake (mmol/g)
0.9721	0.37962
2.0459	0.76205
3.0105	1.08085
4.0235	1.37199
5.0195	1.6326
6.0147	1.87369
6.9828	2.07426
8.2821	2.30582
8.9957	2.4147
9.9648	2.56399
12.0809	2.82256
14.0591	3.01572
16.1016	3.17696
17.991	3.30939
19.9602	3.4152
22.0889	3.51531
24.1204	3.59202
26.1037	3.66638
27.9979	3.71468
30.0044	3.76317
34.4551	3.84731
39.0355	3.91129
43.7494	3.94943
47.9677	3.97165
52.4997	3.98611
57.0198	3.98225
62.072	3.98193
65.9586	3.97304
70.4959	3.942
75.2008	3.90818
