Adsorption isotherm of Methane on NIST RM-8850
DOI: 10.1007/s10450-020-00253-0
Article source: Figure S9
Adsorbate Methane: InChIKey VNWKTOKETHGBQD-UHFFFAOYSA-N
Kind: experiment
Isotherm type: excess
Temperature: 298 K
Tabular data in the source: 1
pressure (bar)	uptake (mmol/g)
0.954	0.37811
2.0187	0.76775
3.0398	1.09722
3.9528	1.36504
4.9515	1.63124
6.0988	1.91023
6.9426	2.08169
7.9484	2.26959
9.0195	2.44871
9.9968	2.58925
11.9607	2.82933
13.954	3.02683
15.9615	3.18558
18.0226	3.32431
19.9665	3.43288
22.0654	3.52816
24.9986	3.64146
26.3591	3.68741
29.0695	3.75951
30.2841	3.79105
35.9546	3.89093
39.2298	3.93521
43.3626	3.97377
47.9565	3.99236
52.852	4.01556
56.9711	4.00775
61.6669	4.00478
65.753	3.98978
70.3304	3.97141
75.0541	3.93982
