Adsorption isotherm of Methane on NIST RM-8850
DOI: 10.1007/s10450-020-00253-0
Article source: Figure S6
Adsorbate Methane: InChIKey VNWKTOKETHGBQD-UHFFFAOYSA-N
Kind: experiment
Isotherm type: excess
Temperature: 298 K
Tabular data in the source: 1
pressure (bar)	uptake (mmol/g)
1.024	0.399365
2.003	0.747576
3.016	1.07813
4.023	1.37325
5.01633	1.634
5.999	1.8647
7.06833	2.08301
8.014	2.25877
8.996	2.41908
9.99333	2.56282
11.999	2.80849
13.998	3.00751
16.0057	3.17038
18.022	3.30053
19.9237	3.41402
21.9983	3.51189
24.043	3.59394
25.9997	3.66137
27.989	3.72106
30.0227	3.77019
34.509	3.85954
39.0447	3.92172
43.5157	3.96135
47.9143	3.99066
52.4407	4.00449
57.018	4.00702
61.5167	4.00434
65.8927	3.99214
70.521	3.97132
75.0103	3.94705
