Adsorption isotherm of Methane on NIST RM-8850
DOI: 10.1007/s10450-020-00253-0
Article source: Figure S7
Adsorbate Methane: InChIKey VNWKTOKETHGBQD-UHFFFAOYSA-N
Kind: experiment
Isotherm type: excess
Temperature: 298 K
Tabular data in the source: 1
pressure (bar)	uptake (mmol/g)
0	0
0.127	0.052772
0.326	0.127067
0.534	0.20689
0.682	0.263448
0.929	0.358565
1.443	0.546639
1.938	0.72155
2.941	1.05581
3.974	1.36286
4.937	1.61907
7.438	2.1621
9.95	2.5672
14.932	3.09394
19.923	3.4222
24.925	3.63805
29.904	3.78496
35.27	3.89328
40.245	3.95953
45.192	4.01097
49.879	4.04029
56.369	4.05673
62.91	4.05508
