Adsorption isotherm of Methane on NIST RM-8850
DOI: 10.1007/s10450-020-00253-0
Article source: Figure S9
Adsorbate Methane: InChIKey VNWKTOKETHGBQD-UHFFFAOYSA-N
Kind: experiment
Isotherm type: excess
Temperature: 298 K
Tabular data in the source: 1
pressure (bar)	uptake (mmol/g)
0.011	0
0.41617	0.158565
0.61227	0.232279
0.81223	0.308791
1.40797	0.527042
2.4053	0.871849
3.40304	1.19181
4.40133	1.47741
5.39989	1.729
6.39846	1.95118
7.39799	2.14745
8.39752	2.32474
9.39732	2.48108
10.3966	2.62096
11.3971	2.74341
12.3967	2.85275
13.395	2.95471
14.3944	3.04143
15.3955	3.12277
16.3957	3.19552
17.3954	3.26372
18.3941	3.32411
19.3937	3.38145
