Adsorption isotherm of Methane on NIST RM-8850
DOI: 10.1007/s10450-020-00253-0
Article source: Figure S10
Adsorbate Methane: InChIKey VNWKTOKETHGBQD-UHFFFAOYSA-N
Kind: experiment
Isotherm type: excess
Temperature: 298 K
Tabular data in the source: 1
pressure (bar)	uptake (mmol/g)
0	0.017068
1.00001	0.416035
1.99809	0.793646
3.00914	1.14088
4.00225	1.50102
5.00206	1.78074
5.99911	2.02623
7.00581	2.24196
7.99893	2.42735
8.99632	2.59474
10.0003	2.74013
12.0017	2.9953
13.9986	3.1995
15.9992	3.37459
17.9669	3.52937
20.0147	3.65424
22.0383	3.74974
24.0577	3.83493
26.031	3.90086
27.9981	3.96725
29.9728	4.01435
34.4461	4.08345
39.0817	4.15012
43.4659	4.24441
47.9627	4.25749
52.5106	4.26606
56.9297	4.2979
61.4044	4.33423
66.0208	4.37286
