Adsorption isotherm of Methane on NIST RM-8850
DOI: 10.1007/s10450-020-00253-0
Article source: Figure S6
Adsorbate Methane: InChIKey VNWKTOKETHGBQD-UHFFFAOYSA-N
Kind: experiment
Isotherm type: excess
Temperature: 298 K
Tabular data in the source: 1
pressure (bar)	uptake (mmol/g)
0	0
0.392	0.1725
0.9923	0.41039
1.7438	0.68807
2.5955	0.97852
3.502	1.27168
4.4552	1.54557
5.4444	1.79417
6.4392	2.01364
7.4569	2.22085
8.4819	2.3967
9.9324	2.61949
11.6281	2.83283
13.4544	3.02449
15.331	3.18905
17.3112	3.32841
19.3179	3.45369
21.3211	3.5555
23.3399	3.64246
25.3485	3.70795
27.3521	3.77174
30.4319	3.85481
34.1573	3.93251
38.2291	3.99912
42.4971	4.04193
46.8663	4.05946
51.2984	4.07986
55.7471	4.08652
60.1978	4.05617
64.6956	4.05682
69.1791	4.03724
