Adsorption isotherm of Methane on NIST RM-8850
DOI: 10.1007/s10450-020-00253-0
Article source: Figure S8
Adsorbate Methane: InChIKey VNWKTOKETHGBQD-UHFFFAOYSA-N
Kind: experiment
Isotherm type: excess
Temperature: 298 K
Tabular data in the source: 1
pressure (bar)	uptake (mmol/g)
0	0
1.0165	0.418954
2.0295	0.802684
3.0315	1.13849
4.0125	1.43761
5.0425	1.70975
6.0325	1.94591
7.0525	2.15621
8.0225	2.34376
9.2725	2.54689
10.0825	2.66949
12.0025	2.90839
14.0425	3.11113
15.9825	3.27123
18.0425	3.40483
19.5225	3.47896
22.0625	3.5933
24.0625	3.67471
26.0675	3.75705
28.0625	3.8189
30.0425	3.87227
34.5625	3.94318
38.9925	4.00597
43.4025	4.03116
47.8525	4.06724
52.3025	4.09666
56.7025	4.11011
61.2025	4.10844
66.0025	4.10425
70.3025	4.1179
74.8025	4.13226
