Adsorption isotherm of Methane on NIST RM-8850
DOI: 10.1007/s10450-020-00253-0
Article source: Figure S7
Adsorbate Methane: InChIKey VNWKTOKETHGBQD-UHFFFAOYSA-N
Kind: experiment
Isotherm type: excess
Temperature: 298 K
Tabular data in the source: 1
pressure (bar)	uptake (mmol/g)
0	0
0.285453	0.270308
0.659494	0.408502
1.0401	0.536028
1.84396	0.833994
2.58876	1.08074
3.44184	1.34204
4.71817	1.69584
6.00763	2.0048
7.14944	2.22067
8.265	2.42489
9.37729	2.60785
10.7094	2.78105
12.0185	2.92413
13.3408	3.05949
14.6729	3.17104
16.0149	3.27258
17.7768	3.38685
19.5748	3.50024
21.1169	3.57195
22.6951	3.63783
24.4735	3.70795
26.2551	3.753
28.4796	3.81338
30.6747	3.85038
33.3553	3.90157
36.0228	3.95798
38.651	3.98758
41.2922	3.9882
44.3567	4.03015
47.8445	4.01374
51.2962	4.04888
55.1941	4.05409
59.0986	4.03521
62.9505	4.01772
66.8287	3.95819
70.6479	3.89535
