Adsorption isotherm of Methane on NIST RM-8850
DOI: 10.1007/s10450-020-00253-0
Article source: Figure S8
Adsorbate Methane: InChIKey VNWKTOKETHGBQD-UHFFFAOYSA-N
Kind: experiment
Isotherm type: excess
Temperature: 298 K
Tabular data in the source: 1
pressure (bar)	uptake (mmol/g)
0	0
0.412455	0.165209
1.0442	0.406302
1.82629	0.68849
2.72723	0.990804
3.69644	1.28687
4.70637	1.56245
5.74733	1.81462
6.80727	2.03841
7.87049	2.23783
8.93779	2.411
10.4601	2.62612
12.2608	2.83586
14.215	3.02324
16.2523	3.18104
18.3032	3.31544
20.373	3.42642
22.4234	3.51929
24.4773	3.60001
26.5392	3.66786
28.5814	3.72163
30.394	3.76515
