Adsorption isotherm of Methane on NIST RM-8850
DOI: 10.1007/s10450-020-00253-0
Article source: Figure S8
Adsorbate Methane: InChIKey VNWKTOKETHGBQD-UHFFFAOYSA-N
Kind: experiment
Isotherm type: excess
Temperature: 298 K
Tabular data in the source: 1
pressure (bar)	uptake (mmol/g)
0	0
1.03	0.397864
2.02	0.759099
3.02	1.08847
4.02	1.38711
5.02	1.65093
6.02	1.88532
7.02	2.0933
8.01	2.27568
9.01	2.43781
10.01	2.58022
12	2.82441
14	3.0181
16	3.17806
17.99	3.30705
20.01	3.41807
21.88	3.50415
23.88	3.58256
25.88	3.64838
27.88	3.70501
29.89	3.75058
34.41	3.83413
38.75	3.88826
43.03	3.92396
47.53	3.94556
52.03	3.95402
56.53	3.95318
61.03	3.94267
65.53	3.92529
70.03	3.90137
74.53	3.87206
