Adsorption isotherm of Methane on NIST RM-8850
DOI: 10.1007/s10450-020-00253-0
Article source: Figure S8
Adsorbate Methane: InChIKey VNWKTOKETHGBQD-UHFFFAOYSA-N
Kind: experiment
Isotherm type: excess
Temperature: 298 K
Tabular data in the source: 1
pressure (bar)	uptake (mmol/g)
0	0
1.03	0.401243
2.02	0.76045
3.02	1.092
4.02	1.38702
5.02	1.65171
6.01	1.88521
7.02	2.09464
8.01	2.27689
9.01	2.43875
10.01	2.58283
12.01	2.82629
14	3.02039
16	3.17943
18	3.31239
19.99	3.42076
21.88	3.5089
23.75	3.58668
25.88	3.654
27.75	3.70992
29.89	3.75941
34.39	3.84264
38.75	3.89707
43.03	3.93395
47.53	3.95689
52.03	3.96642
56.54	3.96781
61.03	3.95828
65.53	3.943
70.03	3.91873
74.53	3.8904
