Adsorption isotherm of Methane on NIST RM-8850
DOI: 10.1007/s10450-020-00253-0
Article source: Figure S9
Adsorbate Methane: InChIKey VNWKTOKETHGBQD-UHFFFAOYSA-N
Kind: experiment
Isotherm type: excess
Temperature: 298 K
Tabular data in the source: 1
pressure (bar)	uptake (mmol/g)
1.0101	0.394
2.0342	0.76337
3.082	1.10031
3.9851	1.37545
5.0069	1.63766
6.0722	1.88776
6.995	2.08088
8.0254	2.2696
9.0348	2.43456
10.0211	2.57726
11.9237	2.81105
14.025	3.02001
16.564	3.21942
17.9645	3.30785
20.0459	3.42104
21.9806	3.51428
23.9609	3.59497
25.9607	3.65869
28.0464	3.72068
30.0891	3.76969
35.1754	3.86597
39.8134	3.92724
44.0037	3.96055
48.5935	3.97909
52.7439	3.99495
57.0704	3.99072
61.3386	3.98747
66.191	3.97863
70.3988	3.95043
74.9972	3.92582
