Adsorption isotherm of Methane on NIST RM-8850
DOI: 10.1007/s10450-020-00253-0
Article source: Figure S6
Adsorbate Methane: InChIKey VNWKTOKETHGBQD-UHFFFAOYSA-N
Kind: experiment
Isotherm type: excess
Temperature: 298 K
Tabular data in the source: 1
pressure (bar)	uptake (mmol/g)
0	0
0.3591	0.1274
0.9331	0.35579
1.6875	0.64241
2.5362	0.92615
3.4484	1.21476
4.4163	1.4965
5.3796	1.72815
6.3886	1.95687
7.4231	2.16541
8.448	2.34101
9.8739	2.55565
11.5191	2.76074
13.3794	2.95787
15.282	3.11941
17.2567	3.25954
19.2565	3.38149
21.2572	3.48446
23.2854	3.57362
25.3174	3.63967
27.329	3.69911
30.4376	3.78024
34.159	3.84687
38.2211	3.91774
42.486	3.96966
46.8589	3.98253
51.2963	3.98785
55.756	3.99473
60.2424	3.97733
64.7445	3.9609
69.2505	3.92029
