Adsorption isotherm of Methane on NIST RM-8850
DOI: 10.1007/s10450-020-00253-0
Article source: Figure S9
Adsorbate Methane: InChIKey VNWKTOKETHGBQD-UHFFFAOYSA-N
Kind: experiment
Isotherm type: excess
Temperature: 298 K
Tabular data in the source: 1
pressure (bar)	uptake (mmol/g)
0.9803	0.38638
1.9902	0.74752
3.1441	1.1257
4.0979	1.40323
5.0086	1.64269
5.9778	1.87068
7.0635	2.09488
8.0226	2.27211
9.0111	2.43338
9.9808	2.57143
12.0449	2.82472
14.0674	3.02243
16.0007	3.17528
17.9707	3.30715
20.1275	3.42735
21.9789	3.5152
24.0518	3.59295
26.1477	3.66424
27.9536	3.71485
29.951	3.76072
34.8722	3.85663
39.5705	3.92132
43.9388	3.95981
47.8791	3.97512
52.8973	3.99213
57.3542	3.98872
61.735	3.98929
65.8278	3.9729
70.6571	3.94419
74.9702	3.92274
