Adsorption isotherm of Methane on NIST RM-8850
DOI: 10.1007/s10450-020-00253-0
Article source: Figure S7
Adsorbate Methane: InChIKey VNWKTOKETHGBQD-UHFFFAOYSA-N
Kind: experiment
Isotherm type: excess
Temperature: 298 K
Tabular data in the source: 1
pressure (bar)	uptake (mmol/g)
0	0
0.164	0.067973
0.669	0.259558
0.917	0.353446
1.425	0.538942
1.932	0.717358
2.968	1.0592
3.934	1.34481
4.965	1.61831
7.428	2.14812
9.988	2.55842
14.934	3.07888
19.93	3.40397
24.905	3.61684
29.895	3.76127
34.89	3.86174
39.877	3.92942
44.876	3.97535
49.887	4.00188
54.846	4.01625
59.825	4.01539
