Adsorption isotherm of Methane on NIST RM-8850
DOI: 10.1007/s10450-020-00253-0
Article source: Figure S6
Adsorbate Methane: InChIKey VNWKTOKETHGBQD-UHFFFAOYSA-N
Kind: experiment
Isotherm type: excess
Temperature: 298 K
Tabular data in the source: 1
pressure (bar)	uptake (mmol/g)
0	0
1.0017	0.4099
2.0016	0.7707
3.0013	1.1032
4	1.4069
5.0006	1.6828
6.0021	1.9304
6.9994	2.1535
8.0017	2.2875
9.0018	2.4591
9.4953	2.543
