Adsorption isotherm of Methane on NIST RM-8850
DOI: 10.1007/s10450-020-00253-0
Article source: Figure S6
Adsorbate Methane: InChIKey VNWKTOKETHGBQD-UHFFFAOYSA-N
Kind: experiment
Isotherm type: excess
Temperature: 298 K
Tabular data in the source: 1
pressure (bar)	uptake (mmol/g)
1.05867	0.410229
2.02167	0.75453
3.01967	1.08026
4.03233	1.38001
4.985	1.63057
5.999	1.86875
6.99633	2.0752
8.05033	2.27155
8.98433	2.42372
9.99567	2.57032
12.004	2.81742
13.982	3.01428
16.0123	3.17742
17.998	3.31177
20.008	3.42441
22.003	3.51901
23.9957	3.59882
25.9987	3.66837
28.024	3.729
30.0693	3.7796
34.4637	3.86604
39.0137	3.92863
43.6197	3.97056
48.0513	3.99716
52.6437	4.01005
57.0367	4.01496
61.5203	4.00961
66.0247	3.99668
70.5057	3.97859
75.0253	3.95229
