Adsorption isotherm of Methane on NIST RM-8850
DOI: 10.1007/s10450-020-00253-0
Article source: Figure S8
Adsorbate Methane: InChIKey VNWKTOKETHGBQD-UHFFFAOYSA-N
Kind: experiment
Isotherm type: excess
Temperature: 298 K
Tabular data in the source: 1
pressure (bar)	uptake (mmol/g)
0	0
1.02	0.397007
2.02	0.756908
3.02	1.08697
4.01	1.38313
5.01	1.6478
6.01	1.88332
7	2.09095
8.01	2.27382
9.01	2.43555
10.01	2.58148
12	2.82238
14	3.01981
15.99	3.17686
18	3.30893
19.99	3.41734
21.9	3.50579
23.75	3.58321
25.75	3.64848
27.88	3.70516
29.88	3.7524
34.38	3.8362
38.75	3.88958
43.04	3.9262
47.53	3.94714
52.03	3.95585
56.53	3.95516
61.03	3.94533
65.53	3.9278
70.03	3.90383
70.8	3.90137
