Adsorption isotherm of Methane on NIST RM-8850
DOI: 10.1007/s10450-020-00253-0
Article source: Figure S8
Adsorbate Methane: InChIKey VNWKTOKETHGBQD-UHFFFAOYSA-N
Kind: experiment
Isotherm type: excess
Temperature: 298 K
Tabular data in the source: 1
pressure (bar)	uptake (mmol/g)
0	0
1.0171	0.389102
2.0191	0.758759
3.0341	1.09411
4.1161	1.41805
5.0661	1.66802
6.0161	1.90905
7.0561	2.12653
8.0261	2.30007
9.0161	2.46325
9.9961	2.60792
11.9661	2.85182
13.9661	3.06742
16.0161	3.22937
17.9761	3.35367
19.9661	3.46574
22.0661	3.56513
24.2161	3.64552
26.2061	3.71499
28.1961	3.774
29.9461	3.82169
34.9961	3.90872
38.2561	3.99453
43.2961	4.01506
49.0961	4.0519
53.1961	4.05316
56.8961	4.05613
61.7961	4.05825
65.9961	4.07482
70.3961	4.07168
74.7961	4.08062
