Adsorption isotherm of Methane on NIST RM-8850
DOI: 10.1007/s10450-020-00253-0
Article source: Figure S9
Adsorbate Methane: InChIKey VNWKTOKETHGBQD-UHFFFAOYSA-N
Kind: experiment
Isotherm type: excess
Temperature: 298 K
Tabular data in the source: 1
pressure (bar)	uptake (mmol/g)
0.000293	0.000579
0.712875	0.28207
1.6806	0.642275
2.68172	0.989427
3.72416	1.31501
4.79653	1.61511
5.89534	1.88414
6.88235	2.09554
7.95883	2.29619
8.96598	2.4646
9.96046	2.60981
11.8676	2.84281
14.0688	3.06003
16.0525	3.21884
18.19	3.36101
20.2654	3.47617
22.3141	3.56907
24.3322	3.64797
26.3402	3.71428
28.4834	3.77444
30.2888	3.81627
35.3069	3.90931
39.3265	3.96268
44.2291	4.00325
48.7514	4.02621
53.0816	4.03422
57.9636	4.0423
62.3137	4.0305
66.8783	4.02355
