Adsorption isotherm of Methane on NIST RM-8850
DOI: 10.1007/s10450-020-00253-0
Article source: Figure S6
Adsorbate Methane: InChIKey VNWKTOKETHGBQD-UHFFFAOYSA-N
Kind: experiment
Isotherm type: excess
Temperature: 298 K
Tabular data in the source: 1
pressure (bar)	uptake (mmol/g)
0	0
0.9882	0.3831
1.9998	0.7351
3.0007	1.0535
4.0004	1.3433
5.002	1.6054
6.0006	1.8397
7.003	2.049
8.0012	2.237
9.0007	2.4009
9.5013	2.4838
