Adsorption isotherm of Methane on NIST RM-8850
DOI: 10.1007/s10450-020-00253-0
Article source: Figure S9
Adsorbate Methane: InChIKey VNWKTOKETHGBQD-UHFFFAOYSA-N
Kind: experiment
Isotherm type: excess
Temperature: 298 K
Tabular data in the source: 1
pressure (bar)	uptake (mmol/g)
0.000663	0.000571
0.711245	0.28486
1.66994	0.647922
2.65614	0.994306
3.70879	1.3285
4.81575	1.63924
5.85422	1.8946
6.8764	2.11311
7.96835	2.31926
9.026	2.4935
10.0354	2.63991
11.9313	2.87226
14.2785	3.10481
16.0665	3.24341
18.2702	3.38742
20.0886	3.48663
22.3544	3.58877
24.2738	3.6647
26.1718	3.72985
28.4995	3.79616
30.3448	3.83787
35.2209	3.92865
39.892	3.98719
44.1468	4.02026
48.5604	4.05362
53.1993	4.06311
57.8821	4.06271
62.2211	4.06012
66.4577	4.0327
