Adsorption isotherm of Methane on NIST RM-8850
DOI: 10.1007/s10450-020-00253-0
Article source: Figure S9
Adsorbate Methane: InChIKey VNWKTOKETHGBQD-UHFFFAOYSA-N
Kind: experiment
Isotherm type: excess
Temperature: 298 K
Tabular data in the source: 1
pressure (bar)	uptake (mmol/g)
0.312452	0.120674
0.535592	0.208376
0.70353	0.272775
0.830698	0.320689
0.923432	0.355187
0.99001	0.379762
1.52573	0.573904
1.79232	0.666744
1.91677	0.709642
2.53499	0.914035
2.86588	1.02018
3.61052	1.24402
3.90436	1.32805
4.57223	1.50905
4.8946	1.59163
5.69712	1.78287
5.94142	1.83814
6.74773	2.00832
7.75715	2.197
8.71108	2.35825
9.8197	2.52231
11.6611	2.75104
13.7856	2.96342
15.8281	3.12877
17.8038	3.26226
19.6493	3.36566
21.6062	3.45969
23.618	3.54211
25.6495	3.6132
27.6325	3.66832
29.6298	3.7182
34.0734	3.80294
38.4914	3.86139
38.6841	3.86115
42.9772	3.9007
43.2077	3.90226
47.5392	3.92372
51.9375	3.93701
56.4412	3.93285
60.9451	3.92334
65.4277	3.90473
69.9353	3.88186
74.388	3.84869
