Adsorption isotherm of Methane on NIST RM-8850
DOI: 10.1007/s10450-020-00253-0
Article source: Figure S10
Adsorbate Methane: InChIKey VNWKTOKETHGBQD-UHFFFAOYSA-N
Kind: experiment
Isotherm type: excess
Temperature: 298 K
Tabular data in the source: 1
pressure (bar)	uptake (mmol/g)
0	0.017111
1.0016	0.413542
2.01168	0.789639
3.00755	1.13175
4.00225	1.47783
4.99978	1.7574
6.00014	2.00058
6.99878	2.21902
7.99637	2.41044
8.99639	2.58451
10.0103	2.73016
12.0079	2.99043
14.0196	3.21802
16.0048	3.4195
17.996	3.56755
20.0321	3.67555
21.9922	3.777
24.017	3.84406
26.0042	3.9011
27.9982	3.9558
30.164	4.00856
34.5072	4.09603
38.9935	4.16512
43.6437	4.21664
48.0286	4.25393
52.4658	4.28118
57.0234	4.3132
61.495	4.35261
66.0211	4.39406
