Adsorption isotherm of Methane on NIST RM-8850
DOI: 10.1007/s10450-020-00253-0
Article source: Figure S8
Adsorbate Methane: InChIKey VNWKTOKETHGBQD-UHFFFAOYSA-N
Kind: experiment
Isotherm type: excess
Temperature: 298 K
Tabular data in the source: 1
pressure (bar)	uptake (mmol/g)
0	0
3.212	0.688
8.583	0.9364
13.192	1.0776
17.006	1.1624
20.394	1.202
23.263	1.2695
26.467	1.2813
29.55	1.3389
33.273	1.3753
37.21	1.391
41.36	1.4179
45.907	1.4884
50.882	1.5493
55.948	1.5912
61.563	1.6212
66.874	1.6449
72.062	1.6939
78.44	1.7523
