Adsorption isotherm of Methane on NIST RM-8850
DOI: 10.1007/s10450-020-00253-0
Article source: Figure S9
Adsorbate Methane: InChIKey VNWKTOKETHGBQD-UHFFFAOYSA-N
Kind: experiment
Isotherm type: excess
Temperature: 298 K
Tabular data in the source: 1
pressure (bar)	uptake (mmol/g)
0.010038	0
0.422923	0.166237
0.610059	0.238868
0.811675	0.31619
1.40756	0.536545
2.40489	0.884337
3.40207	1.20476
4.4005	1.49028
5.39948	1.74333
6.39832	1.96697
7.39757	2.16324
8.39628	2.33947
9.39732	2.49863
10.3971	2.63616
11.3983	2.75943
12.3973	2.87124
13.3966	2.97063
14.3955	3.05923
15.3952	3.14066
16.3964	3.21363
17.3952	3.28108
18.3945	3.34107
19.3936	3.39791
