Adsorption isotherm of Carbon Dioxide on MIL-53(Cr)
DOI: 10.1021/La200094x
Adsorbate Carbon Dioxide: InChIKey CURLTUGMZLYLDI-UHFFFAOYSA-N
Temperature: 304 K
Tabular data in the source: 0
pressure (bar)	uptake (mmol/g)
0.066778	0.237468
0.233723	0.498794
0.33389	0.949951
0.367279	1.2586
0.567613	1.68613
0.868114	2.01883
1.30217	2.25674
2.07012	2.49504
2.33723	2.59031
2.97162	2.78098
3.6394	2.82925
3.97329	2.97208
4.70785	3.16286
4.87479	3.28175
5.24207	3.73323
5.4424	3.92337
5.64274	4.23222
5.70952	4.42221
5.87646	4.61232
6.17696	5.15867
6.34391	5.34878
7.01169	6.32286
7.51252	6.6558
8.28047	7.13149
9.31553	7.56002
9.84975	7.72682
10.384	7.70372
10.6511	7.79899
10.985	7.84687
11.2855	7.8947
11.6194	7.91884
12.0534	8.01431
12.3539	8.0384
12.6878	8.06254
12.9883	8.11037
13.7896	8.25376
14.0902	8.27785
14.424	8.32573
14.8247	8.39742
15.1252	8.42151
15.4591	8.46939
17.2287	8.75635
17.5626	8.75675
17.8631	8.78085
18.7312	8.87683
19.4324	8.97262
