Adsorption isotherm of Mercury on MIL-53(Cr)
DOI: 10.1021/La200094x
Adsorbate Mercury: InChIKey QSHDDOUJBYECFT-UHFFFAOYSA-N
Temperature: 304 K
Tabular data in the source: 0
pressure (bar)	uptake (ml/g)
4.89282	1.3153
5.86169	1.3209
7.30942	1.3209
11.3658	1.3209
17.6738	1.3209
28.0388	1.3209
46.3116	1.33209
116.582	1.34328
139.656	1.34328
174.161	1.34888
221.559	1.34328
287.594	1.34328
351.528	1.34888
447.435	1.38246
559.114	1.53918
711.721	1.57836
1106.62	1.57276
1827.51	1.57276
2189.22	1.57276
3615.43	1.57276
4244.63	1.56716
