Adsorption isotherm of Mercury on MIL-53(Cr)
DOI: 10.1021/La200094x
Adsorbate Mercury: InChIKey QSHDDOUJBYECFT-UHFFFAOYSA-N
Temperature: 304 K
Tabular data in the source: 0
pressure (bar)	uptake (ml/g)
0.071123	0.0279851
0.0852275	0.0503731
0.138024	0.0895522
0.165392	0.11194
0.198143	0.117537
0.237415	0.134328
0.290214	0.145522
0.340852	0.16791
0.416655	0.179104
0.499198	0.190299
0.610217	0.201493
0.731161	0.218284
0.875946	0.223881
1.04956	0.240672
1.25748	0.251866
1.5066	0.26306
1.84166	0.274254
2.20635	0.279851
2.59073	0.285448
3.10398	0.296642
3.79401	0.302239
4.54529	0.307836
5.44617	0.324627
6.52559	0.341418
7.51194	0.363806
8.8233	0.391791
10.1585	0.425373
11.6958	0.458955
12.4305	0.514925
14.6214	0.649254
15.2318	0.705224
15.5521	0.761194
16.2009	0.817164
16.8756	0.867537
18.6887	0.996269
19.8619	1.04664
21.1101	1.10261
22.4368	1.15858
25.8339	1.19776
29.7386	1.22015
34.9301	1.24813
41.8533	1.26493
50.1441	1.27612
61.2915	1.28172
91.5714	1.29291
136.811	1.3041
188.591	1.29851
293.272	1.3041
358.443	1.3041
429.447	1.3153
484.652	1.35448
525.509	1.40485
581.313	1.44963
643.058	1.4944
