Adsorption isotherm of Nitrogen on Zeolite 13X
DOI: 10.1007/s10450-021-00312-0
Article source: Figure 2
Adsorbate Nitrogen: InChIKey IJGRMHOSHXDMSA-UHFFFAOYSA-N
Kind: experiment
Temperature: 413 K
Tabular data in the source: 0
pressure (bar)	uptake (mmol/g)
0.156863	0.035364
0.392157	0.043768
0.862745	0.096289
1.52941	0.139443
2.47059	0.1552
4.07843	0.249825
5.92157	0.317139
10.0392	0.495448
