Adsorption isotherm of Nitrogen on Zeolite 13X
DOI: 10.1007/s10450-021-00312-0
Article source: Figure 2
Adsorbate Nitrogen: InChIKey IJGRMHOSHXDMSA-UHFFFAOYSA-N
Kind: experiment
Temperature: 298 K
Tabular data in the source: 0
pressure (bar)	uptake (mmol/g)
0.039216	0.062412
0.117647	0.115809
0.352941	0.195641
0.666667	0.266369
1.01961	0.372724
1.4902	0.532388
2.47059	0.798057
3.92157	1.16089
6.07843	1.52215
10.0392	1.97759
