Adsorption isotherm of Carbon Dioxide on Zeolite 13X
DOI: 10.1007/s10450-021-00312-0
Article source: Figure 1
Adsorbate Carbon Dioxide: InChIKey CURLTUGMZLYLDI-UHFFFAOYSA-N
Kind: experiment
Temperature: 338 K
Tabular data in the source: 0
pressure (bar)	uptake (mmol/g)
0.08009	0.280955
0.10732	0.716643
0.222649	1.56191
0.257889	2.12574
0.369214	2.40694
0.504565	3.07256
0.720807	3.53244
0.963479	3.91518
1.38875	4.21961
2.03108	4.49672
2.82797	4.747
4.34487	5.01738
6.48326	5.2317
10.3476	5.56095
