Adsorption isotherm of Carbon Dioxide, Nitrogen on Zeolite 13X
DOI: 10.1007/s10450-021-00312-0
Article source: Figure 5
Adsorbate Carbon Dioxide: InChIKey CURLTUGMZLYLDI-UHFFFAOYSA-N
Adsorbate Nitrogen: InChIKey IJGRMHOSHXDMSA-UHFFFAOYSA-N
Kind: experiment
Temperature: 298 K
Tabular data in the source: 0
pressure (bar)	Carbon Dioxide fraction	Carbon Dioxide uptake (mmol/g)	Nitrogen fraction	Nitrogen uptake (mmol/g)	total uptake (mmol/g)
3.2	0.058569	2.95939	0.060358	3.60246	6.56185
3.2	0.29389	5.03502	0.246796	1.26751	6.30253
3.2	0.300447	5.05961	0.238897	0.885618	5.94523
3.2	0.663487	5.60283	0.604173	0.357675	5.96051
