Adsorption isotherm of Carbon Dioxide, Nitrogen on Zeolite 13X
DOI: 10.1007/s10450-021-00312-0
Article source: Figure 8
Adsorbate Carbon Dioxide: InChIKey CURLTUGMZLYLDI-UHFFFAOYSA-N
Adsorbate Nitrogen: InChIKey IJGRMHOSHXDMSA-UHFFFAOYSA-N
Kind: experiment
Temperature: 318 K
Tabular data in the source: 0
pressure (bar)	Carbon Dioxide fraction	Carbon Dioxide uptake (mmol/g)	Nitrogen fraction	Nitrogen uptake (mmol/g)	total uptake (mmol/g)
10.1	0.162639	4.43702	0.157412	3.22151	7.65853
10.1	0.169237	4.46315	0.15407	2.87061	7.33376
10.1	0.452014	5.15467	0.401885	0.891174	6.04584
10.1	0.737018	5.41345	0.684233	0.20437	5.61782
