Adsorption isotherm of Nitrogen on Zeolite 13X
DOI: 10.1007/s10450-021-00312-0
Article source: Figure 2
Adsorbate Nitrogen: InChIKey IJGRMHOSHXDMSA-UHFFFAOYSA-N
Kind: experiment
Temperature: 318 K
Tabular data in the source: 0
pressure (bar)	uptake (mmol/g)
0.117647	0.035452
0.352941	0.106355
0.627451	0.159314
0.941176	0.283613
1.45098	0.353904
2.5098	0.565826
4.19608	0.812062
6.03922	1.09366
10	1.49554
