Adsorption isotherm of Carbon Dioxide on Zeolite 13X
DOI: 10.1007/s10450-021-00312-0
Article source: Figure 1
Adsorbate Carbon Dioxide: InChIKey CURLTUGMZLYLDI-UHFFFAOYSA-N
Kind: experiment
Temperature: 413 K
Tabular data in the source: 0
pressure (bar)	uptake (mmol/g)
0.117732	0.383229
0.132148	0.613888
0.287522	1.09987
0.426878	1.32957
0.699183	1.68645
1.09963	2.09363
1.84847	2.57504
2.87041	2.92616
4.17828	3.35199
6.13727	3.6959
10.1033	4.15257
