Adsorption isotherm of Carbon Dioxide on Zeolite 13X
DOI: 10.1007/s10450-021-00312-0
Article source: Figure 1
Adsorbate Carbon Dioxide: InChIKey CURLTUGMZLYLDI-UHFFFAOYSA-N
Kind: experiment
Temperature: 373 K
Tabular data in the source: 0
pressure (bar)	uptake (mmol/g)
0.164985	0.639276
0.167387	1.17772
0.193016	1.58778
0.407657	2.02203
0.587858	2.40525
0.927439	2.83854
1.23739	3.29769
1.6971	3.65313
2.78472	4.05502
4.24395	4.40277
6.45122	4.71912
10.1217	4.9473
