Adsorption isotherm of Nitrogen on Zeolite 13X
DOI: 10.1007/s10450-021-00312-0
Article source: Figure 2
Adsorbate Nitrogen: InChIKey IJGRMHOSHXDMSA-UHFFFAOYSA-N
Kind: experiment
Temperature: 338 K
Tabular data in the source: 0
pressure (bar)	uptake (mmol/g)
0.196078	0.053134
0.588235	0.10583
0.980392	0.19424
1.37255	0.255865
2.47059	0.396271
4.03922	0.607055
5.96078	0.82598
10.0392	1.14723
