Adsorption isotherm of Carbon Dioxide on Zeolite 13X
DOI: 10.1007/s10450-021-00312-0
Article source: Figure 1
Adsorbate Carbon Dioxide: InChIKey CURLTUGMZLYLDI-UHFFFAOYSA-N
Kind: experiment
Temperature: 318 K
Tabular data in the source: 0
pressure (bar)	uptake (mmol/g)
0.102515	0.639757
0.227455	1.6388
0.192215	2.07496
0.291527	2.66394
0.478136	3.14969
0.4461	3.63711
0.688771	4.01986
0.867371	4.37746
1.33029	4.78416
1.782	5.01145
2.38827	5.21192
3.14753	5.35992
4.24716	5.45403
5.31876	5.59963
7.26013	5.66162
10.3636	5.81723
