Adsorption isotherm of Carbon Dioxide on Zeolite 13X
DOI: 10.1007/s10450-021-00312-0
Article source: Figure 1
Adsorbate Carbon Dioxide: InChIKey CURLTUGMZLYLDI-UHFFFAOYSA-N
Kind: experiment
Temperature: 298 K
Tabular data in the source: 0
pressure (bar)	uptake (mmol/g)
0.05366	0.358081
0.129745	1.07544
0.177799	1.84431
0.213039	2.40814
0.238667	2.8182
0.257889	3.12574
0.32116	3.63808
0.442095	4.07304
0.656736	4.50729
0.76806	4.78848
0.835336	4.86489
1.03556	5.06848
1.19974	5.19542
1.68269	5.42247
2.34823	5.5712
3.23562	5.7695
4.24315	5.88996
5.43649	5.98334
7.38107	6.09659
10.386	6.17604
