Adsorption isotherm of Nitrogen on Zeolite 13X
DOI: 10.1007/s10450-021-00312-0
Article source: Figure 2
Adsorbate Nitrogen: InChIKey IJGRMHOSHXDMSA-UHFFFAOYSA-N
Kind: experiment
Temperature: 373 K
Tabular data in the source: 0
pressure (bar)	uptake (mmol/g)
0.156863	0.071078
0.509804	0.088148
0.862745	0.114146
1.56863	0.192927
2.47059	0.253414
3.96078	0.339373
6.07843	0.531075
9.92157	0.736782
