Adsorption isotherm of Carbon Dioxide on COF-102
DOI: 10.1021/Jp211280m
Adsorbate Carbon Dioxide: InChIKey CURLTUGMZLYLDI-UHFFFAOYSA-N
Temperature: 298 K
Tabular data in the source: 0
pressure (bar)	uptake (mg/g)
0.633041	25.3978
3.37952	147.933
5.21051	304.271
6.40769	426.806
6.97107	532.44
8.02741	654.975
9.22459	769.06
9.99924	862.018
20.2809	1195.82
30.3514	1271.88
50.2105	1246.52
