Adsorption isotherm of Carbon Dioxide on COF-102
DOI: 10.1021/Jp211280m
Adsorbate Carbon Dioxide: InChIKey CURLTUGMZLYLDI-UHFFFAOYSA-N
Temperature: 298 K
Tabular data in the source: 0
pressure (bar)	uptake (mg/g)
2.18844	112.895
6.83641	430.386
9.12464	627.746
10.9123	754.314
12.9145	876.591
16.0608	975.271
18.206	1035.34
23.2115	1112.56
26.2148	1138.31
29.2181	1155.47
36.1543	1196.23
42.1609	1198.37
45.4503	1200.52
49.3117	1191.94
