Adsorption isotherm of Carbon Dioxide on COF-202
DOI: 10.1021/Jp211280m
Adsorbate Carbon Dioxide: InChIKey CURLTUGMZLYLDI-UHFFFAOYSA-N
Temperature: 298 K
Tabular data in the source: 0
pressure (bar)	uptake (mg/g)
0.492195	8.49644
2.18234	50.75
5.28093	135.257
7.18234	202.863
9.08375	262.018
10.2809	300.046
20.2105	536.665
30.3514	680.327
40.1401	735.257
49.9992	735.257
