Adsorption isotherm of Carbon Dioxide on COF-103
DOI: 10.1021/Jp211280m
Adsorbate Carbon Dioxide: InChIKey CURLTUGMZLYLDI-UHFFFAOYSA-N
Temperature: 298 K
Tabular data in the source: 0
pressure (bar)	uptake (mg/g)
0.844308	16.9471
4.50628	194.412
6.97107	367.651
8.23867	494.412
9.15417	583.144
10.4218	701.454
20.2105	1250.75
30.2809	1369.06
40.3513	1385.96
50.1401	1360.61
