Adsorption isotherm of Carbon Dioxide on COF-103
DOI: 10.1021/Jp211280m
Adsorbate Carbon Dioxide: InChIKey CURLTUGMZLYLDI-UHFFFAOYSA-N
Temperature: 298 K
Tabular data in the source: 0
pressure (bar)	uptake (mg/g)
0.35135	29.6232
1.90065	105.68
3.80205	215.539
5.77389	308.496
7.67529	401.454
8.80205	452.158
9.71755	494.412
19.8584	993.003
29.9992	1356.38
39.9992	1474.69
49.9288	1474.69
