Adsorption isotherm of Carbon Dioxide on COF-105
DOI: 10.1021/Jp211280m
Adsorbate Carbon Dioxide: InChIKey CURLTUGMZLYLDI-UHFFFAOYSA-N
Temperature: 298 K
Tabular data in the source: 0
pressure (bar)	uptake (mg/g)
0.562618	16.9471
20.2105	769.06
30.4218	1483.14
50.4218	2987.37
