Adsorption isotherm of Carbon Dioxide on COF-103
DOI: 10.1021/Jp211280m
Adsorbate Carbon Dioxide: InChIKey CURLTUGMZLYLDI-UHFFFAOYSA-N
Temperature: 298 K
Tabular data in the source: 0
pressure (bar)	uptake (mg/g)
0.0983781	4.2406
0.965984	49.311
2.01105	97.1983
3.03641	156.353
4.02232	205.649
5.00824	259.17
7.01951	354.945
8.00542	395.79
8.99134	442.269
10.0167	487.339
