Adsorption isotherm of Carbon Dioxide on COF-102
DOI: 10.1021/Jp211280m
Adsorbate Carbon Dioxide: InChIKey CURLTUGMZLYLDI-UHFFFAOYSA-N
Temperature: 298 K
Tabular data in the source: 0
pressure (bar)	uptake (mg/g)
0.914731	80.3274
2.81614	236.665
4.71755	338.074
6.7598	452.158
7.74572	498.637
8.66121	545.116
9.85839	591.595
19.9992	1107.09
30.2105	1326.81
49.9288	1356.38
