Adsorption isotherm of Carbon Dioxide on COF-103
DOI: 10.1021/Jp211280m
Adsorbate Carbon Dioxide: InChIKey CURLTUGMZLYLDI-UHFFFAOYSA-N
Temperature: 298 K
Tabular data in the source: 0
pressure (bar)	uptake (mg/g)
1.11584	48.5381
4.19065	185.832
6.12134	333.852
9.26765	526.921
11.4129	696.393
13.129	769.33
15.2027	898.043
18.063	970.98
23.4261	1067.52
30.2192	1127.58
36.2974	1157.61
41.5174	1181.21
45.0212	1185.5
48.3106	1187.65
