Adsorption isotherm of Carbon Dioxide on COF-108
DOI: 10.1021/Jp211280m
Adsorbate Carbon Dioxide: InChIKey CURLTUGMZLYLDI-UHFFFAOYSA-N
Temperature: 298 K
Tabular data in the source: 0
pressure (bar)	uptake (mg/g)
0.492195	25.3978
2.18234	88.7781
4.01332	160.609
6.05558	245.116
8.02741	312.722
9.99924	388.778
19.9288	874.694
30.0697	1500.05
39.8584	2171.88
49.7175	2801.45
