Adsorption isotherm of Carbon Dioxide on COF-105
DOI: 10.1021/Jp211280m
Adsorbate Carbon Dioxide: InChIKey CURLTUGMZLYLDI-UHFFFAOYSA-N
Temperature: 298 K
Tabular data in the source: 0
pressure (bar)	uptake (mg/g)
0.421773	12.7218
20.1401	823.989
29.9288	1436.67
49.9288	2847.93
