Adsorption isotherm of Carbon Dioxide on COF-108
DOI: 10.1021/Jp211280m
Adsorbate Carbon Dioxide: InChIKey CURLTUGMZLYLDI-UHFFFAOYSA-N
Temperature: 298 K
Tabular data in the source: 0
pressure (bar)	uptake (mg/g)
0.773886	21.1725
3.23867	84.5528
7.25276	215.539
10.3514	342.299
20.1401	777.51
30.3514	1466.24
40.2809	2493
50.2105	2995.82
