Adsorption isotherm of Carbon Dioxide on COF-102
DOI: 10.1021/Jp211280m
Adsorbate Carbon Dioxide: InChIKey CURLTUGMZLYLDI-UHFFFAOYSA-N
Temperature: 298 K
Tabular data in the source: 0
pressure (bar)	uptake (mg/g)
0.0392232	7.0575
1.04486	74.6631
2.01105	145.086
3.03641	221.142
3.98289	281.705
4.98852	336.635
6.01387	383.114
6.99979	433.818
8.02514	483.114
8.99134	535.227
10.0364	590.156
