Adsorption isotherm of Carbon Dioxide on COF-202
DOI: 10.1021/Jp211280m
Adsorbate Carbon Dioxide: InChIKey CURLTUGMZLYLDI-UHFFFAOYSA-N
Temperature: 298 K
Tabular data in the source: 0
pressure (bar)	uptake (mg/g)
0.633041	16.9471
3.02741	93.0035
4.85839	160.609
6.7598	219.764
9.01332	278.919
10.3514	312.722
19.9992	481.736
29.9992	608.496
40.2105	625.398
49.788	625.398
