Adsorption isotherm of Carbon Dioxide on COF-103
DOI: 10.1021/Jp211280m
Adsorbate Carbon Dioxide: InChIKey CURLTUGMZLYLDI-UHFFFAOYSA-N
Temperature: 298 K
Tabular data in the source: 0
pressure (bar)	uptake (mg/g)
0.329259	9.92421
2.83201	121.475
6.26435	314.545
7.90902	479.726
8.98162	571.97
9.98272	685.667
20.0652	1241.28
30.1477	1374.28
40.1587	1389.3
49.9552	1361.41
