Adsorption isotherm of Carbon Dioxide on COF-102
DOI: 10.1021/Jp211280m
Adsorbate Carbon Dioxide: InChIKey CURLTUGMZLYLDI-UHFFFAOYSA-N
Temperature: 298 K
Tabular data in the source: 0
pressure (bar)	uptake (mg/g)
1.04486	47.9026
1.97162	98.6068
3.01669	163.396
4.02232	238.043
5.04767	321.142
6.01387	425.367
6.99979	546.494
7.96598	663.396
9.03077	764.804
10.0561	866.212
