Adsorption isotherm of Carbon Dioxide on COF-102
DOI: 10.1021/Jp211280m
Adsorbate Carbon Dioxide: InChIKey CURLTUGMZLYLDI-UHFFFAOYSA-N
Temperature: 298 K
Tabular data in the source: 0
pressure (bar)	uptake (mg/g)
1.11584	59.2641
2.83201	170.815
5.12024	314.545
6.12134	421.805
7.05093	550.518
8.12354	666.36
9.26765	767.185
10.0542	852.994
20.1367	1202.66
30.1477	1275.6
50.0982	1245.57
