Adsorption isotherm of Carbon Dioxide on COF-103
DOI: 10.1021/Jp211280m
Adsorbate Carbon Dioxide: InChIKey CURLTUGMZLYLDI-UHFFFAOYSA-N
Temperature: 298 K
Tabular data in the source: 0
pressure (bar)	uptake (mg/g)
1.00542	29.5927
1.99134	80.2969
3.07584	132.41
4.08148	180.297
5.02796	239.452
5.99415	308.466
7.03922	383.114
8.08429	485.931
8.91246	584.522
10.0167	681.705
