Adsorption isotherm of Ethane, Ethene on Activated carbon: AC-40
DOI: 10.1021/je00056a003
Article source: Table II
Adsorbate Ethane: InChIKey OTMSDBZUPAUEDD-UHFFFAOYSA-N
Adsorbate Ethene: InChIKey VGGSQFUCUMXWEO-UHFFFAOYSA-N
Kind: experiment
Temperature: 323 K
Tabular data in the source: 0
pressure (bar)	Ethane fraction	Ethane uptake (mmol/g)	Ethene fraction	Ethene uptake (mmol/g)	total uptake (mmol/g)
0.1	0.836	0.432415	0.164	0.060085	0.4925
0.1	0.6	0.321235	0.4	0.151865	0.4731
0.1	0.445	0.2585	0.555	0.2115	0.47
0.1	0.31	0.185501	0.69	0.271399	0.4569
0.1	0.195	0.1197	0.805	0.3303	0.45
