Adsorption isotherm of Ethene on Activated carbon: AC-40
DOI: 10.1021/je00056a003
Article source: Table I
Adsorbate Ethene: InChIKey VGGSQFUCUMXWEO-UHFFFAOYSA-N
Kind: experiment
Temperature: 323 K
Tabular data in the source: 0
pressure (bar)	uptake (mmol/g)
0.0087	0.0746
0.0362	0.2246
0.056	0.3154
0.0909	0.4212
0.1459	0.5482
0.2309	0.7172
0.2457	0.746
0.3346	0.8916
0.4328	1.029
0.4587	1.0642
0.5681	1.169
0.694	1.3054
1.0141	1.55
