Adsorption isotherm of Methane on Activated carbon: AC-40
DOI: 10.1021/je00056a003
Article source: Table I
Adsorbate Methane: InChIKey VNWKTOKETHGBQD-UHFFFAOYSA-N
Kind: experiment
Temperature: 323 K
Tabular data in the source: 0
pressure (bar)	uptake (mmol/g)
0.1066	0.0573
0.137	0.0761
0.2783	0.1429
0.3843	0.1958
0.4941	0.2336
0.6012	0.2819
0.7503	0.338
0.8653	0.375
0.9833	0.4083
1.0627	0.4285
