Adsorption isotherm of Propene on Activated carbon: AC-40
DOI: 10.1021/je00056a003
Article source: Table I
Adsorbate Propene: InChIKey QQONPFPTGQHPMA-UHFFFAOYSA-N
Kind: experiment
Temperature: 323 K
Tabular data in the source: 0
pressure (bar)	uptake (mmol/g)
0.0033	0.2896
0.008	0.4302
0.0378	0.8804
0.0861	1.2852
0.1741	1.6628
0.279	1.999
0.5362	2.4821
0.6977	2.682
