Adsorption isotherm of Propene, Ethene on Activated carbon: AC-40
DOI: 10.1021/je00056a003
Article source: Table II
Adsorbate Propene: InChIKey QQONPFPTGQHPMA-UHFFFAOYSA-N
Adsorbate Ethene: InChIKey VGGSQFUCUMXWEO-UHFFFAOYSA-N
Kind: experiment
Temperature: 323 K
Tabular data in the source: 0
pressure (bar)	Propene fraction	Propene uptake (mmol/g)	Ethene fraction	Ethene uptake (mmol/g)	total uptake (mmol/g)
0.1	0.652	1.07438	0.348	0.050625	1.125
0.1	0.343	0.73111	0.657	0.123989	0.8551
0.1	0.25	0.625486	0.75	0.159314	0.7848
0.1	0.106	0.40467	0.894	0.21033	0.615
0.1	0.043	0.25272	0.957	0.28728	0.54
0.1	0.024	0.180357	0.976	0.309743	0.4901
0.1	0.011	0.101205	0.989	0.348595	0.4498
