Adsorption isotherm of Ethane, Propene on Activated carbon: AC-40
DOI: 10.1021/je00056a003
Article source: Table II
Adsorbate Ethane: InChIKey OTMSDBZUPAUEDD-UHFFFAOYSA-N
Adsorbate Propene: InChIKey QQONPFPTGQHPMA-UHFFFAOYSA-N
Kind: experiment
Temperature: 323 K
Tabular data in the source: 0
pressure (bar)	Ethane fraction	Ethane uptake (mmol/g)	Propene fraction	Propene uptake (mmol/g)	total uptake (mmol/g)
0.1	0.274	0.063852	0.726	1.03705	1.1009
0.1	0.405	0.089972	0.595	0.994028	1.084
0.1	0.595	0.143536	0.405	0.776564	0.9201
0.1	0.693	0.188977	0.307	0.650922	0.8399
0.1	0.846	0.27695	0.154	0.44805	0.725
0.1	0.906	0.31866	0.094	0.38634	0.705
0.1	0.939	0.3252	0.061	0.265	0.5902
0.1	0.992	0.432306	0.008	0.078694	0.511
