Adsorption isotherm of Ethane, Methane on Activated carbon: AC-40
DOI: 10.1021/je00056a003
Article source: Table II
Adsorbate Ethane: InChIKey OTMSDBZUPAUEDD-UHFFFAOYSA-N
Adsorbate Methane: InChIKey VNWKTOKETHGBQD-UHFFFAOYSA-N
Kind: experiment
Temperature: 323 K
Tabular data in the source: 0
pressure (bar)	Ethane fraction	Ethane uptake (mmol/g)	Methane fraction	Methane uptake (mmol/g)	total uptake (mmol/g)
0.1	0.629	0.28906	0.371	0.00894	0.298
0.1	0.231	0.153525	0.769	0.018975	0.1725
0.1	0.077	0.124313	0.923	0.038187	0.1625
0.1	0.025	0.056175	0.975	0.048825	0.105
0.1	0.01	0.030247	0.99	0.062253	0.0925
0.1	0.002	0.00854	0.998	0.05246	0.061
