Adsorption isotherm of Ethene, Methane on Activated carbon: AC-40
DOI: 10.1021/je00056a003
Article source: Table II
Adsorbate Ethene: InChIKey VGGSQFUCUMXWEO-UHFFFAOYSA-N
Adsorbate Methane: InChIKey VNWKTOKETHGBQD-UHFFFAOYSA-N
Kind: experiment
Temperature: 323 K
Tabular data in the source: 0
pressure (bar)	Ethene fraction	Ethene uptake (mmol/g)	Methane fraction	Methane uptake (mmol/g)	total uptake (mmol/g)
0.1	0.577	0.29862	0.423	0.01638	0.315
0.1	0.336	0.204429	0.664	0.028671	0.2331
0.1	0.092	0.076574	0.908	0.043826	0.1204
0.1	0.022	0.023182	0.978	0.051118	0.0743
0.1	0.006	0.007304	0.994	0.058496	0.0658
