Adsorption isotherm of Ethane on Activated carbon: AC-40
DOI: 10.1021/je00056a003
Article source: Table I
Adsorbate Ethane: InChIKey OTMSDBZUPAUEDD-UHFFFAOYSA-N
Kind: experiment
Temperature: 323 K
Tabular data in the source: 0
pressure (bar)	uptake (mmol/g)
0.0036	0.0504
0.014	0.157
0.0645	0.3744
0.2033	0.7194
0.3353	0.9302
0.4751	1.12
0.6275	1.3
0.7866	1.421
0.9294	1.526
