Adsorption isotherm of Ethene on Zeolite 13X
DOI: 10.1021/ie00065a013
Article source: Table II
Adsorbate Ethene: InChIKey VGGSQFUCUMXWEO-UHFFFAOYSA-N
Kind: experiment
Temperature: 323 K
Tabular data in the source: 0
pressure (bar)	uptake (cm3(STP)/g)
0.002758	2.55
0.002758	2.57
0.010342	5.51
0.044126	15.71
0.102732	29.4
0.121348	29.98
0.280617	41.76
0.321296	43.47
0.363354	44.37
0.43368	47.57
0.550202	49.59
1.10385	55.91
1.30793	57.36
1.4672	58.88
1.58441	58.94
1.81677	60.04
1.96845	59.23
2.25596	61.18
2.42833	61.37
2.59932	61.54
2.76204	62.68
3.0068	62.55
3.46117	63.4
4.0748	65.71
4.10927	64.32
4.66775	65.64
5.46754	67.11
