Adsorption isotherm of Ethane on Zeolite 13X
DOI: 10.1021/ie00065a013
Article source: Table IV
Adsorbate Ethane: InChIKey OTMSDBZUPAUEDD-UHFFFAOYSA-N
Kind: experiment
Temperature: 323 K
Tabular data in the source: 0
pressure (bar)	uptake (cm3(STP)/g)
0.006205	2.45
0.075842	3.01
0.110316	5.2
0.122727	5.5
0.134448	6.7
0.14479	7.8
0.206843	10.3
0.220632	11
0.248211	12
0.241317	11.9
0.255106	12.5
0.310264	16
0.337843	16.8
0.344738	18
0.351633	19.5
0.386106	20.8
0.413685	23.5
0.468843	24.5
0.475738	26
0.517107	27.8
0.592949	30.5
0.648107	31.4
0.675686	32.5
0.779108	34.8
0.868739	36.3
1.00663	38.7
1.08248	39.8
1.14453	40.5
1.35827	42.4
1.55132	44.1
1.95811	46.2
2.35801	47.7
2.93027	50.2
3.61975	51.4
