Adsorption isotherm of Ethane on Zeolite 13X
DOI: 10.1021/ie00065a013
Article source: Table V
Adsorbate Ethane: InChIKey OTMSDBZUPAUEDD-UHFFFAOYSA-N
Kind: experiment
Temperature: 423 K
Tabular data in the source: 0
pressure (bar)	uptake (cm3(STP)/g)
0.227527	1.7
0.317159	2.3
0.468843	3.3
0.655002	4.5
0.937687	6.3
0.992845	6.5
1.19279	7.8
1.38585	9
1.48927	9.2
1.55132	10.1
1.67543	10.65
1.72369	11.2
1.8478	12
1.90295	12.2
2.02016	13
2.25114	14.02
2.39248	14.5
2.53038	15
3.07851	17.1
