Adsorption isotherm of Ethene on Zeolite 13X
DOI: 10.1021/ie00065a013
Article source: Table III
Adsorbate Ethene: InChIKey VGGSQFUCUMXWEO-UHFFFAOYSA-N
Kind: experiment
Temperature: 423 K
Tabular data in the source: 0
pressure (bar)	uptake (cm3(STP)/g)
0.051711	1.95
0.061363	2.23
0.155822	5.03
0.164095	5.27
0.185469	5.88
0.19788	6.14
0.321985	8.94
0.401275	10.5
0.428854	11.06
0.485391	12.13
0.53917	13.07
0.603981	14.03
0.694302	15.38
0.785313	16.57
0.820476	16.98
0.954924	18.65
1.08937	20.18
1.23899	21.5
1.38033	22.83
1.55201	24.2
1.92571	26.46
2.14358	27.82
2.42764	29.58
2.77445	31.47
