Adsorption isotherm of Ethane, Ethene on Zeolite 13X
DOI: 10.1021/ie00065a013
Article source: Table VI
Adsorbate Ethane: InChIKey OTMSDBZUPAUEDD-UHFFFAOYSA-N
Adsorbate Ethene: InChIKey VGGSQFUCUMXWEO-UHFFFAOYSA-N
Kind: experiment
Temperature: 423 K
Tabular data in the source: 0
pressure (bar)	Ethane fraction	Ethane uptake (cm3(STP)/g)	Ethene fraction	Ethene uptake (cm3(STP)/g)	total uptake (cm3(STP)/g)
1.37895	0.14	1.43658	0.86	19.3834	20.82
1.37895	0.227	2.004	0.773	18.036	20.04
1.37895	0.268	2.5155	0.732	16.8345	19.35
1.37895	0.356	3.12123	0.644	15.5688	18.69
1.37895	0.461	3.7169	0.539	13.3331	17.05
1.37895	0.462	3.689	0.538	13.311	17
1.37895	0.53	4.24704	0.47	12.343	16.59
1.37895	0.64	4.88392	0.36	10.0061	14.89
1.37895	0.69	5.7113	0.31	8.2187	13.93
1.37895	0.75	6.3544	0.25	7.1656	13.52
1.37895	0.84	6.77845	0.16	5.89155	12.67
1.37895	0.85	6.765	0.15	5.535	12.3
1.37895	0.88	7.2072	0.12	4.4928	11.7
