Adsorption isotherm of Ethane, Ethene on Zeolite 13X
DOI: 10.1021/ie00065a013
Article source: Table VI
Adsorbate Ethane: InChIKey OTMSDBZUPAUEDD-UHFFFAOYSA-N
Adsorbate Ethene: InChIKey VGGSQFUCUMXWEO-UHFFFAOYSA-N
Kind: experiment
Temperature: 323 K
Tabular data in the source: 0
pressure (bar)	Ethane fraction	Ethane uptake (cm3(STP)/g)	Ethene fraction	Ethene uptake (cm3(STP)/g)	total uptake (cm3(STP)/g)
1.37895	0.047	0.555	0.953	54.945	55.5
1.37895	0.168	2.2468	0.832	52.5532	54.8
1.37895	0.229	3.1436	0.771	51.0564	54.2
1.37895	0.803	19.173	0.197	30.627	49.8
1.37895	0.868	23.859	0.132	24.341	48.2
1.37895	0.877	23.7636	0.123	24.5364	48.3
1.37895	0.906	27.683	0.094	19.317	47
