Adsorption isotherm of Carbon Dioxide on BPL Activated Carbon
DOI: 10.1016/j.seppur.2017.01.054
Article source: Figure 8
Adsorbate Carbon Dioxide: InChIKey CURLTUGMZLYLDI-UHFFFAOYSA-N
Kind: experiment
Temperature: 338 K
Tabular data in the source: 0
pressure (bar)	uptake (mmol/g)
0.3184	0.4097
0.6021	0.559
1.2121	1.1056
1.786	1.5147
2.2633	1.6729
2.6765	1.8073
