Adsorption isotherm of Hydrogen on BPL Activated Carbon
DOI: 10.1016/j.seppur.2017.01.054
Article source: Figure 4
Adsorbate Hydrogen: InChIKey UFHFLCQGNIYNRP-UHFFFAOYSA-N
Kind: experiment
Temperature: 338 K
Tabular data in the source: 0
pressure (bar)	uptake (mmol/g)
0.01542	0.000351
0.03221	0.000725
0.06186	0.001122
0.08238	0.001596
0.10918	0.002109
0.13198	0.002544
0.17331	0.003318
0.21607	0.00416
0.29532	0.005689
0.38711	0.007391
0.51225	0.009752
0.67587	0.01279
0.88082	0.01665
1.18184	0.022281
