Adsorption isotherm of Methane on BPL Activated Carbon
DOI: 10.1016/j.seppur.2017.01.054
Article source: Figure 6
Adsorbate Methane: InChIKey VNWKTOKETHGBQD-UHFFFAOYSA-N
Kind: experiment
Temperature: 298 K
Tabular data in the source: 0
pressure (bar)	uptake (mmol/g)
0.2311	0.3125
0.5643	0.667
1.1806	1.1025
1.8084	1.3829
2.2129	1.5083
2.687	1.6891
