Adsorption isotherm of Nitrogen on BPL Activated Carbon
DOI: 10.1016/j.seppur.2017.01.054
Article source: Figure 4
Adsorbate Nitrogen: InChIKey IJGRMHOSHXDMSA-UHFFFAOYSA-N
Kind: experiment
Temperature: 313 K
Tabular data in the source: 0
pressure (bar)	uptake (mmol/g)
0.2169	0.07484
0.6351	0.21563
1.2008	0.37107
1.8583	0.50165
2.2504	0.59536
2.6968	0.6531
