Adsorption isotherm of Carbon monoxide on BPL Activated Carbon
DOI: 10.1016/j.seppur.2017.01.054
Article source: Figure 7
Adsorbate Carbon monoxide: InChIKey UGFAIRIUMAVXCW-UHFFFAOYSA-N
Kind: experiment
Temperature: 298 K
Tabular data in the source: 0
pressure (bar)	uptake (mmol/g)
0.2857	0.19956
0.6838	0.28858
1.0819	0.45029
1.8986	0.64005
2.2299	0.72791
2.6486	0.82044
