Adsorption isotherm of Carbon Dioxide on BPL Activated Carbon
DOI: 10.1016/j.seppur.2017.01.054
Article source: Figure 8
Adsorbate Carbon Dioxide: InChIKey CURLTUGMZLYLDI-UHFFFAOYSA-N
Kind: experiment
Temperature: 313 K
Tabular data in the source: 0
pressure (bar)	uptake (mmol/g)
0.3313	0.7614
0.5936	1.1227
1.1907	1.7586
1.7733	2.1875
2.232	2.353
2.6763	2.6503
