Adsorption isotherm of Carbon monoxide on BPL Activated Carbon
DOI: 10.1016/j.seppur.2017.01.054
Article source: Figure 7
Adsorbate Carbon monoxide: InChIKey UGFAIRIUMAVXCW-UHFFFAOYSA-N
Kind: experiment
Temperature: 313 K
Tabular data in the source: 0
pressure (bar)	uptake (mmol/g)
0.3374	0.15299
0.7145	0.24503
1.22	0.35007
1.8825	0.50254
2.2372	0.58249
2.6674	0.68103
