Adsorption isotherm of Carbon monoxide on BPL Activated Carbon
DOI: 10.1016/j.seppur.2017.01.054
Article source: Figure 7
Adsorbate Carbon monoxide: InChIKey UGFAIRIUMAVXCW-UHFFFAOYSA-N
Kind: experiment
Temperature: 338 K
Tabular data in the source: 0
pressure (bar)	uptake (mmol/g)
0.7125	0.165
1.0896	0.23005
1.8887	0.33222
2.2291	0.38798
2.6694	0.44278
