Adsorption isotherm of Nitrogen on BPL Activated Carbon
DOI: 10.1016/j.seppur.2017.01.054
Article source: Figure 5
Adsorbate Nitrogen: InChIKey IJGRMHOSHXDMSA-UHFFFAOYSA-N
Kind: experiment
Temperature: 338 K
Tabular data in the source: 0
pressure (bar)	uptake (mmol/g)
0.2975	0.04537
0.6652	0.10812
1.2013	0.18497
1.8523	0.24772
2.1769	0.30764
2.6986	0.36546
