Adsorption isotherm of Hydrogen on BPL Activated Carbon
DOI: 10.1016/j.seppur.2017.01.054
Article source: Figure 4
Adsorbate Hydrogen: InChIKey UFHFLCQGNIYNRP-UHFFFAOYSA-N
Kind: experiment
Temperature: 313 K
Tabular data in the source: 0
pressure (bar)	uptake (mmol/g)
0.01542	0.000351
0.03261	0.000735
0.04302	0.001211
0.06655	0.001779
0.08465	0.002193
0.10773	0.002792
0.12719	0.003222
0.17063	0.004189
0.21904	0.00531
0.2937	0.007168
0.39099	0.009501
0.50638	0.012342
0.66837	0.016165
0.89236	0.021385
1.17698	0.028263
