Adsorption isotherm of Methane on BPL Activated Carbon
DOI: 10.1016/j.seppur.2017.01.054
Article source: Figure 6
Adsorbate Methane: InChIKey VNWKTOKETHGBQD-UHFFFAOYSA-N
Kind: experiment
Temperature: 313 K
Tabular data in the source: 0
pressure (bar)	uptake (mmol/g)
0.3376	0.3289
0.5662	0.4989
1.1851	0.8562
1.84	1.1637
2.2202	1.2632
2.6902	1.3979
