Adsorption isotherm of Methane on BPL Activated Carbon
DOI: 10.1016/j.seppur.2017.01.054
Article source: Figure 6
Adsorbate Methane: InChIKey VNWKTOKETHGBQD-UHFFFAOYSA-N
Kind: experiment
Temperature: 338 K
Tabular data in the source: 0
pressure (bar)	uptake (mmol/g)
0.3223	0.2205
0.5894	0.3112
1.1622	0.566
1.8377	0.8149
2.223	0.8909
2.6725	0.9698
