Adsorption isotherm of Nitrogen on BPL Activated Carbon
DOI: 10.1016/j.seppur.2017.01.054
Article source: Figure 4
Adsorbate Nitrogen: InChIKey IJGRMHOSHXDMSA-UHFFFAOYSA-N
Kind: experiment
Temperature: 298 K
Tabular data in the source: 0
pressure (bar)	uptake (mmol/g)
0.2323	0.05796
0.6556	0.16722
1.2031	0.28136
1.8462	0.37862
2.2086	0.45102
2.6666	0.50565
