Adsorption isotherm of Carbon Dioxide on BPL Activated Carbon
DOI: 10.1016/j.seppur.2017.01.054
Article source: Figure 8
Adsorbate Carbon Dioxide: InChIKey CURLTUGMZLYLDI-UHFFFAOYSA-N
Kind: experiment
Temperature: 298 K
Tabular data in the source: 0
pressure (bar)	uptake (mmol/g)
0.3106	0.9421
0.6225	1.5555
1.2175	2.2366
1.8021	2.7408
2.2402	3.0342
2.6721	2.9325
