Adsorption isotherm of Methane on SNU-6
DOI: 10.1002/chem.200801064
Adsorbate Methane: InChIKey VNWKTOKETHGBQD-UHFFFAOYSA-N
Temperature: 195 K
Tabular data in the source: 0
pressure (bar)	uptake (cm3(STP)/g)
0.0114169	17.2677
0.0285423	25.1535
0.0513761	29.9239
0.0742099	31.5611
0.088481	34.7384
0.114169	36.3844
0.156982	42.7831
0.208358	47.6417
0.262589	54.0757
0.313965	58.9343
0.368195	63.8017
0.413863	67.0761
0.465239	70.3681
0.567991	76.9522
0.616513	80.2354
0.670743	83.5362
0.719265	88.386
0.767787	91.6692
0.819163	94.9612
0.870539	98.2532
0.919061	99.9698
0.970437	103.262
