Adsorption isotherm of Hydrogen on SNU-6
DOI: 10.1002/chem.200801064
Adsorbate Hydrogen: InChIKey UFHFLCQGNIYNRP-UHFFFAOYSA-N
Temperature: 87 K
Tabular data in the source: 0
pressure (bar)	uptake (cm3(STP)/g)
0.0227556	12.3375
0.035442	15.7059
0.0455826	19.0728
0.055716	23
0.0734941	26.3712
0.0836418	29.1779
0.114121	34.797
0.159846	42.6654
0.218307	49.9806
0.261494	57.2874
0.312361	61.2371
0.363185	68.5481
0.41659	73.0595
0.464904	77.568
0.515742	83.7585
0.566609	87.7082
0.617476	91.6579
0.66579	96.1664
0.719202	100.118
0.767523	104.066
0.818397	107.455
0.869271	110.845
0.917578	115.913
0.970983	120.425
