Adsorption isotherm of Hydrogen on SNU-6
DOI: 10.1002/chem.200801064
Adsorbate Hydrogen: InChIKey UFHFLCQGNIYNRP-UHFFFAOYSA-N
Temperature: 77 K
Tabular data in the source: 0
pressure (bar)	uptake (wt%)
1.10699	1.26364
2.03771	1.79037
5.02921	2.63378
10.0848	3.58337
14.9547	4.39252
20.2019	5.09658
24.8874	5.69513
30.324	6.294
35.3856	6.85763
39.8855	7.31574
45.1349	7.87945
50.1982	8.33781
55.4503	8.72607
60.138	9.18427
65.014	9.60746
70.4539	9.99581
