Adsorption isotherm of Methane on SNU-6
DOI: 10.1002/chem.200801064
Adsorbate Methane: InChIKey VNWKTOKETHGBQD-UHFFFAOYSA-N
Temperature: 273 K
Tabular data in the source: 0
pressure (bar)	uptake (cm3(STP)/g)
0.111315	5.04395
0.162691	5.20281
0.214067	6.92825
0.265443	7.08712
0.316819	8.81256
0.365341	10.5292
0.413863	10.6792
0.465239	10.8381
0.516615	12.5635
0.570845	12.7312
0.622221	16.0232
0.670743	14.6067
0.719265	14.7567
0.770641	16.4822
0.822017	16.641
0.873393	18.3665
0.924769	18.5254
0.973291	18.6754
