Adsorption isotherm of Carbon Dioxide on SNU-6
DOI: 10.1002/chem.200801064
Adsorbate Carbon Dioxide: InChIKey CURLTUGMZLYLDI-UHFFFAOYSA-N
Temperature: 273 K
Tabular data in the source: 0
pressure (bar)	uptake (cm3(STP)/g)
0.0313965	3.23024
0.0799183	9.6466
0.111315	12.8768
0.208358	21.0098
0.262589	21.1775
0.311111	26.0273
0.365341	27.7616
0.416717	32.6202
0.468093	34.3456
0.513761	37.62
0.570845	39.3631
0.616513	42.6374
0.667889	44.3629
0.719265	47.6549
0.773495	49.3892
0.822017	51.1058
0.873393	52.8312
0.921915	54.5479
0.973291	56.2733
1.0104	57.9546
