Adsorption isotherm of Hydrogen on SNU-6
DOI: 10.1002/chem.200801064
Adsorbate Hydrogen: InChIKey UFHFLCQGNIYNRP-UHFFFAOYSA-N
Temperature: 77 K
Tabular data in the source: 0
pressure (bar)	uptake (wt%)
0.186145	0.105345
0.920291	1.19339
2.22715	1.68519
3.72509	1.96655
5.0347	2.28291
5.97311	2.31841
7.28381	2.5646
11.0331	2.9873
12.7215	3.0933
14.9723	3.26972
20.0378	3.58774
24.9165	3.83549
30.1725	3.97815
35.2396	4.19089
36.1802	4.08604
37.8692	4.15696
40.12	4.33339
41.06	4.26362
42.938	4.26445
45.1887	4.44087
55.139	4.62067
61.1472	4.69349
62.8362	4.7644
64.338	4.80015
66.0282	4.80089
67.5305	4.80155
69.4073	4.87255
70.3452	4.94313
