Adsorption isotherm of Carbon Dioxide on SNU-6
DOI: 10.1002/chem.200801064
Adsorbate Carbon Dioxide: InChIKey CURLTUGMZLYLDI-UHFFFAOYSA-N
Temperature: 195 K
Tabular data in the source: 0
pressure (bar)	uptake (cm3(STP)/g)
0.00570845	31.3492
0.0114169	40.7664
0.0171254	59.583
0.025688	67.4424
0.0371049	80.0103
0.0485218	92.5782
0.0599387	100.446
0.0685014	108.306
0.088481	130.3
0.0998979	142.868
0.125586	166.446
0.151274	190.024
0.162691	213.558
0.174108	233.959
0.179816	263.741
0.18267	295.082
0.185525	429.816
0.208358	486.284
0.305402	513.216
0.356778	521.208
0.411008	530.775
0.45953	537.191
0.510906	542.05
0.616513	553.342
0.66218	558.183
0.719265	561.493
0.819163	571.201
0.873393	572.936
0.921915	576.219
0.973291	577.944
0.998979	579.59
