Adsorption isotherm of Hydrogen on SNU-6
DOI: 10.1002/chem.200801064
Adsorbate Hydrogen: InChIKey UFHFLCQGNIYNRP-UHFFFAOYSA-N
Temperature: 77 K
Tabular data in the source: 0
pressure (bar)	uptake (cm3(STP)/g)
0.0125509	14.0125
0.0175713	19.6176
0.0225631	27.4635
0.0301293	33.0699
0.045333	38.6805
0.0529277	42.0461
0.0630469	47.0937
0.0757333	50.462
0.0934757	56.6343
0.113771	62.2478
0.15434	75.1554
0.16958	77.9649
0.187358	81.3361
0.210206	86.3907
0.2229	89.1989
0.240678	92.57
0.276241	98.7522
0.294019	102.123
0.327044	107.744
0.347368	111.116
0.377853	116.175
0.410878	121.796
0.441385	125.174
0.494762	131.926
0.515086	135.299
0.563379	141.488
0.581185	142.618
0.614224	147.118
0.662531	152.187
0.713369	158.378
0.766767	163.449
0.815074	168.518
0.871011	174.151
0.916772	179.218
0.967639	183.168
1.00832	187.112
