Adsorption isotherm of Nitrogen on SNU-6
DOI: 10.1002/chem.200801064
Adsorbate Nitrogen: InChIKey IJGRMHOSHXDMSA-UHFFFAOYSA-N
Temperature: 77 K
Tabular data in the source: 0
pressure (bar)	uptake (cm3(STP)/g)
0.000427351	116.314
0.000512821	139.577
0.000652682	177.644
0.00290599	90.9366
0.00343435	234.743
0.00357421	272.81
0.00366745	298.187
0.00585083	192.447
0.00889667	321.45
0.00898214	344.713
0.0116317	365.861
0.0168765	393.353
0.0196659	452.568
0.0250971	530.816
0.0329604	570.997
0.0433023	585.801
0.0690988	606.949
0.092269	613.293
0.112883	623.867
0.166939	636.556
0.226123	645.015
0.285308	653.474
0.339333	657.704
0.395936	664.048
0.447406	672.508
0.506566	674.622
0.565727	676.737
0.614608	680.967
0.676333	680.967
0.730366	687.311
0.786955	689.426
0.84098	693.656
0.889854	695.77
0.949015	697.885
1.00303	700
