Adsorption isotherm of Carbon Dioxide on ZIF-7
DOI: 10.1021/jacs.5b08362
Article source: Figure 2b
Adsorbate Carbon Dioxide: InChIKey CURLTUGMZLYLDI-UHFFFAOYSA-N
Kind: experiment
Temperature: 423 K
Tabular data in the source: 0
pressure (bar)	uptake (mmol/g)
0.230701	0.005242
0.384335	0.004802
0.518358	0.016472
0.651613	0.016274
0.79077	0.028036
1.10471	0.051604
1.51639	0.063259
2.19442	0.06294
3.12004	0.086493
4.13447	0.110107
5.01326	0.408151
5.10634	0.133781
5.97434	0.610783
6.41815	0.181297
7.11213	1.1832
8.03526	1.57673
8.06566	0.288456
9.08636	1.66012
9.76967	0.944354
10.6436	1.73156
12.0368	1.80302
12.2552	1.67179
14.6043	1.88635
14.6086	1.779
16.8082	1.96973
17.4157	1.86234
19.0143	1.92191
19.6888	2.04116
21.8791	2.07686
22.272	2.00527
23.8864	2.14835
25.1779	2.19602
25.186	2.08867
27.0147	2.19596
27.9776	2.25557
