Adsorption isotherm of Carbon Dioxide on ZIF-7
DOI: 10.1021/jacs.5b08362
Article source: Figure 2b
Adsorbate Carbon Dioxide: InChIKey CURLTUGMZLYLDI-UHFFFAOYSA-N
Kind: experiment
Temperature: 206 K
Tabular data in the source: 0
pressure (bar)	uptake (mmol/g)
0.000121	0.047547
0.000343	0.082435
0.000634	0.141546
0.000902	0.188956
0.001134	0.236472
0.001352	0.295963
0.001528	0.415141
0.001639	0.522436
0.001728	0.60589
0.001758	0.689374
0.001789	0.784786
0.00182	0.892127
0.001918	0.999438
0.001951	1.10678
0.001951	1.21413
0.001985	1.28569
0.002055	1.41687
0.002091	1.50036
0.002128	1.61963
0.002203	1.71502
0.002281	1.82235
0.002362	1.90582
0.002534	2.02504
0.002766	2.10847
0.003184	2.20377
0.004001	2.27514
0.005209	2.33456
0.006782	2.4059
0.008375	2.45343
0.010527	2.50095
0.012774	2.52464
0.014966	2.53643
0.021277	2.58384
0.029206	2.60742
0.03544	2.64304
0.043774	2.64286
0.051284	2.66658
0.059033	2.69032
0.064461	2.70217
0.071638	2.71401
0.08246	2.74967
0.086934	2.7377
0.096612	2.74953
0.101847	2.76142
0.103643	2.79719
0.107369	2.76137
0.117241	2.77322
0.123575	2.83282
0.130299	2.77313
0.172592	2.93989
0.181995	2.85634
0.209334	3.1425
0.228686	2.99929
0.240686	3.55988
0.267744	3.23772
0.271976	3.89377
0.302545	3.58354
0.318522	4.03677
0.330073	3.8936
0.353924	4.10825
0.373095	4.12014
0.373216	4.01278
0.407371	4.15584
0.422075	4.07232
0.429428	4.17966
0.452699	4.19154
0.46085	4.10802
0.494299	4.21532
0.503199	4.13181
0.521087	4.2272
0.549452	4.15559
0.568971	4.25098
0.589481	4.17938
0.599819	4.25094
0.621427	4.19127
0.632324	4.26282
0.666699	4.21506
0.690462	4.27467
0.715204	4.27464
0.727981	4.23884
0.754032	4.25074
0.780962	4.2865
0.809003	4.26261
0.852806	4.28642
0.867881	4.31026
0.899001	4.2983
0.964539	4.31017
