Adsorption isotherm of Carbon Dioxide on ZIF-7(lp+)
DOI: 10.1021/jacs.5b08362
Article source: Figure 7a
Adsorbate Carbon Dioxide: InChIKey CURLTUGMZLYLDI-UHFFFAOYSA-N
Kind: experiment
Temperature: 196 K
Tabular data in the source: 0
pressure (bar)	uptake (mmol/g)
0.0002	0.042105
0.000428	0.094737
0.000692	0.126316
0.000958	0.168421
0.001218	0.221053
0.001403	0.252632
0.001593	0.284211
0.001685	0.336842
0.00186	0.389474
0.001995	0.473684
0.002171	0.578947
0.002233	0.684211
0.002264	0.778947
0.002328	0.873684
0.002328	0.968421
0.002393	1.15789
0.002394	1.08421
0.002461	1.26316
0.002494	1.47368
0.002495	1.37895
0.002529	1.54737
0.002601	1.65263
0.002637	1.76842
0.002751	1.85263
0.00291	1.95789
0.003078	2.04211
0.003397	2.14737
0.003803	2.24211
0.004699	2.32632
0.006144	2.41053
0.012984	2.56842
0.022205	2.64211
0.033444	2.68421
0.039059	2.74737
0.043733	2.73684
0.049661	2.74737
0.053294	2.75789
0.059663	2.8
0.061378	2.76842
0.069695	2.78947
0.070676	2.84211
0.079142	2.8
0.089863	2.83158
0.092413	2.92632
0.100605	2.86316
0.106417	2.98947
0.109491	2.90526
0.117487	2.95789
0.120804	3.10526
0.124205	3.27368
0.133208	3.50526
0.144904	3.71579
0.153232	3.93684
0.153515	3.28421
0.173952	4.05263
0.17904	3.84211
0.200295	4.13684
0.22109	4.17895
0.22428	4.10526
0.237236	4.23158
0.285016	4.28421
0.285082	4.2
0.323616	4.32632
0.328284	4.25263
0.36231	4.34737
0.388884	4.29474
0.423175	4.38947
0.429279	4.31579
0.460575	4.41053
0.47386	4.34737
0.508429	4.42105
0.530518	4.36842
0.561242	4.44211
0.585612	4.4
0.619455	4.51579
0.655602	4.44211
0.703558	4.45263
0.765597	4.53684
0.765702	4.49474
0.810177	4.50526
0.857235	4.52632
0.869401	4.53684
