Adsorption isotherm of Carbon Dioxide on ZIF-7
DOI: 10.1021/jacs.5b08362
Article source: Figure 2a
Adsorbate Carbon Dioxide: InChIKey CURLTUGMZLYLDI-UHFFFAOYSA-N
Kind: experiment
Temperature: 196 K
Tabular data in the source: 0
pressure (bar)	uptake (mmol/g)
0	0
0.001833	0.107783
0.04491	0.359308
0.046234	3.28146
0.047558	0.203621
0.048474	3.14973
0.055195	2.75452
0.056213	2.69464
0.064564	2.20363
0.065175	2.1677
0.067008	2.05992
0.067212	2.04794
0.068434	1.97609
0.071896	1.7725
0.076173	1.521
0.089412	0.742569
0.093689	0.491074
0.098272	3.22162
0.102345	2.9821
0.104382	2.86234
0.106011	2.76653
0.108455	2.62282
0.108659	2.61084
0.110492	2.50306
0.113344	2.3354
0.133711	1.1378
0.137071	3.9402
0.137173	0.934214
0.142469	0.62284
0.143996	3.53302
0.145626	3.43721
0.154384	2.92225
0.161308	2.51507
0.163141	2.40728
0.165586	2.26357
0.183509	1.20969
0.190332	3.8085
0.192979	3.65281
0.198886	3.30551
0.233612	4.26361
0.236463	4.09595
0.334226	4.34751
0.384635	4.38346
0.587289	4.46742
0.739737	4.50344
0.790146	4.5394
