Adsorption isotherm of Carbon Dioxide on ZIF-7
DOI: 10.1021/jacs.5b08362
Article source: Figure 2a
Adsorbate Carbon Dioxide: InChIKey CURLTUGMZLYLDI-UHFFFAOYSA-N
Kind: experiment
Temperature: 206 K
Tabular data in the source: 0
pressure (bar)	uptake (mmol/g)
0	0
0	0.107783
0.04491	0.359308
0.047558	0.203621
0.064564	2.20363
0.065175	2.1677
0.067008	2.05992
0.067212	2.04794
0.068434	1.97609
0.071896	1.7725
0.076173	1.521
0.08931	3.74856
0.089412	0.742569
0.091958	3.59287
0.093689	0.491074
0.093995	3.47311
0.102345	2.9821
0.106419	2.74258
0.107437	2.6827
0.108455	2.62282
0.108659	2.61084
0.110492	2.50306
0.113344	2.3354
0.13147	1.26954
0.133711	1.1378
0.137173	0.934214
0.137479	3.91625
0.142469	0.62284
0.148884	3.2456
0.151125	3.11386
0.154384	2.92225
0.155606	2.85039
0.157235	2.75459
0.161308	2.51507
0.163141	2.40728
0.165586	2.26357
0.189517	3.8564
0.190332	3.8085
0.191961	3.71269
0.200923	3.18575
0.24461	3.61691
0.247462	3.44925
0.288502	4.0361
0.290335	3.92832
0.339114	4.06008
0.339929	4.01218
0.389116	4.11999
0.440543	4.09607
0.490952	4.13203
0.540546	4.21589
0.592381	4.16802
0.642178	4.23991
0.744829	4.20404
0.845851	4.26398
0.846258	4.24003
0.947687	4.27602
0.998503	4.28802
