Adsorption isotherm of Carbon Dioxide on ZIF-7
DOI: 10.1021/jacs.5b08362
Article source: Figure 2b
Adsorbate Carbon Dioxide: InChIKey CURLTUGMZLYLDI-UHFFFAOYSA-N
Kind: experiment
Temperature: 301 K
Tabular data in the source: 0
pressure (bar)	uptake (mmol/g)
0.007074	0.02018
0.074785	0.053929
0.145925	0.160708
0.183451	0.136653
0.251704	0.303378
0.270134	0.207889
0.351293	0.649015
0.377311	0.2911
0.389762	1.22149
0.440088	1.81781
0.457678	0.457931
0.508159	0.791837
0.53502	1.23314
0.562743	2.00845
0.614695	1.90102
0.682747	2.10371
0.69504	2.02019
0.786032	2.07973
0.813954	2.17513
0.888955	2.12734
0.920768	2.13924
0.953455	2.24656
1.05964	2.24647
1.19842	2.29408
1.21994	2.22249
1.48003	2.34161
2.69153	2.44845
3.32346	2.55562
3.69394	2.51975
4.98035	2.6507
5.25134	2.59101
6.60009	2.65046
6.83518	2.722
7.86937	2.68609
8.29373	2.78147
8.59271	2.70987
9.05608	2.80525
9.71852	2.73362
10.0642	2.81709
10.7974	2.84089
10.9911	2.78123
11.382	2.8647
11.7921	2.80503
12.2118	2.87657
12.6506	2.84075
13.1015	2.90036
13.8108	2.92417
14.0585	2.86452
14.5583	2.95991
15.3465	2.98373
15.6221	2.91214
16.7556	3.03136
17.0573	2.94785
17.9808	2.97166
18.6192	3.07899
18.9531	3.01933
19.9793	3.04314
20.3292	3.12662
20.6938	3.06697
21.4333	3.09079
21.8087	3.17428
22.1993	3.12655
22.9879	3.22195
22.9922	3.1623
24.232	3.25769
25.0975	3.29344
25.1044	3.19801
26.001	3.23377
26.4551	3.32918
27.3993	3.37686
27.4088	3.25758
27.8824	3.41263
28.3864	3.30526
29.3894	3.47223
29.4009	3.34102
30.4369	3.53184
30.4495	3.3887
30.9728	3.57954
31.537	3.42446
32.0937	3.46023
32.643	3.67492
32.661	3.48407
33.8267	3.53175
35.0155	3.75836
35.0324	3.59136
35.0364	3.55558
36.2786	3.67483
36.2852	3.61519
36.902	3.86567
37.5708	3.74637
38.2305	3.806
38.9027	3.86563
39.5612	4.13997
39.5849	3.93718
40.2819	3.98488
40.9864	4.08029
41.6879	4.29499
42.4395	4.19955
43.1777	4.31882
44.7033	4.48578
46.2722	4.72432
46.2839	4.64082
47.062	4.95095
47.0793	4.83166
48.736	5.03442
