Adsorption isotherm of Carbon Dioxide on ZIF-7
DOI: 10.1021/jacs.5b08362
Article source: Figure 2a
Adsorbate Carbon Dioxide: InChIKey CURLTUGMZLYLDI-UHFFFAOYSA-N
Kind: experiment
Temperature: 473 K
Tabular data in the source: 0
pressure (bar)	uptake (mmol/g)
0	0
0.459383	0.011701
0.867542	0.011457
1.17346	0.000703
1.47958	0.000886
1.68345	0.012984
2.29569	0.013351
3.16283	0.025846
4.18302	0.038433
5.10097	0.062935
6.58034	0.075797
8.36563	0.100818
10.2528	0.137876
12.7517	0.199253
14.9954	0.272452
17.6458	0.429728
19.7784	1.02981
22.4739	1.53442
24.9202	1.69157
27.6728	1.83693
28.9469	1.92153
