Adsorption isotherm of Carbon Dioxide on ZIF-7(np)
DOI: 10.1021/jacs.5b08362
Article source: Figure 7a
Adsorbate Carbon Dioxide: InChIKey CURLTUGMZLYLDI-UHFFFAOYSA-N
Kind: experiment
Temperature: 206 K
Tabular data in the source: 0
pressure (bar)	uptake (mmol/g)
0.000545	0.052632
0.001289	0.115789
0.002084	0.168421
0.002924	0.210526
0.003464	0.273684
0.004045	0.336842
0.004528	0.442105
0.00479	0.557895
0.005065	0.736842
0.005067	0.621053
0.005208	0.926316
0.005209	0.842105
0.005355	1.04211
0.00543	1.13684
0.005506	1.24211
0.005582	1.35789
0.00566	1.44211
0.005821	1.54737
0.005902	1.65263
0.005984	1.75789
0.006241	1.85263
0.00651	1.94737
0.00679	2.04211
0.007388	2.13684
0.00827	2.22105
0.009935	2.30526
0.012277	2.38947
0.015388	2.44211
0.019018	2.48421
0.022529	2.51579
0.027067	2.55789
0.030304	2.57895
0.040193	2.62105
0.051099	2.64211
0.061396	2.66316
0.071714	2.68421
0.082592	2.69474
0.092468	2.71579
0.100644	2.72632
0.111099	2.74737
0.122642	2.75789
0.129769	2.76842
0.131629	2.72632
0.137312	2.76842
0.145285	2.78947
0.16038	2.8
0.172092	2.85263
0.190016	2.78947
0.225009	2.95789
0.241524	2.88421
0.270197	3.17895
0.290088	3.04211
0.302176	3.58947
0.333887	3.26316
0.338018	3.91579
0.352606	3.95789
0.357973	3.61053
0.378303	4.06316
0.389144	4.06316
0.400433	3.93684
0.411709	4.10526
0.429497	4.13684
0.435723	4.04211
0.448074	4.14737
0.467444	4.16842
0.487663	4.17895
0.487787	4.09474
0.515988	4.2
0.530762	4.21053
0.530836	4.15789
0.553694	4.23158
0.577657	4.24211
0.57775	4.17895
0.594183	4.25263
0.619898	4.26316
0.619983	4.21053
0.646711	4.27368
0.655979	4.23158
0.694017	4.28421
0.694081	4.25263
0.713888	4.29474
0.713937	4.26316
0.744766	4.30526
0.755423	4.27368
0.799319	4.28421
0.810588	4.32632
0.822205	4.29474
0.857768	4.30526
0.869881	4.33684
0.89487	4.31579
0.946826	4.33684
0.960307	4.33684
0.987802	4.34737
