Adsorption isotherm of Carbon Dioxide on ZIF-7
DOI: 10.1021/jacs.5b08362
Article source: Figure 2a
Adsorbate Carbon Dioxide: InChIKey CURLTUGMZLYLDI-UHFFFAOYSA-N
Kind: experiment
Temperature: 423 K
Tabular data in the source: 0
pressure (bar)	uptake (mmol/g)
0	0
0.459179	0.000275
0.867134	0.012495
1.22407	0.024685
1.58101	0.036875
1.78488	0.048973
2.29508	0.049279
3.16181	0.085726
4.07976	0.110227
5.04873	0.13476
5.19751	0.386346
6.21424	0.602523
6.52769	0.171573
7.17384	1.17795
8.1367	1.56176
8.20972	0.268389
9.30853	1.65827
9.98381	0.952086
10.6851	1.71897
12.3673	1.80381
12.4205	1.67211
14.7128	1.88905
14.7658	1.76932
17.4154	1.9745
17.4172	1.86672
19.7631	1.928
19.9652	2.04788
22.0562	2.09704
22.5166	2.02546
24.3002	2.14629
24.8112	2.09869
26.8506	2.18374
27.5645	2.20812
28.8394	2.24481
