Adsorption isotherm of Carbon Dioxide on ZIF-7
DOI: 10.1021/jacs.5b08362
Article source: Figure 2b
Adsorbate Carbon Dioxide: InChIKey CURLTUGMZLYLDI-UHFFFAOYSA-N
Kind: experiment
Temperature: 523 K
Tabular data in the source: 0
pressure (bar)	uptake (mmol/g)
1.31753	0.00819
2.66354	0.015059
3.59236	0.026729
4.51575	0.03846
6.30827	0.073956
8.50825	0.073698
11.273	0.145026
13.6789	0.204501
16.8904	0.299746
21.2222	0.466547
23.167	0.573827
26.1939	0.716862
27.6039	0.836101
28.5838	0.943427
29.6006	1.0269
30.645	1.20579
31.722	1.4324
32.8284	1.74251
33.9821	1.96912
35.7907	2.29115
