Adsorption isotherm of Carbon Dioxide on ZIF-7
DOI: 10.1021/jacs.5b08362
Article source: Figure 2b
Adsorbate Carbon Dioxide: InChIKey CURLTUGMZLYLDI-UHFFFAOYSA-N
Kind: experiment
Temperature: 473 K
Tabular data in the source: 0
pressure (bar)	uptake (mmol/g)
0.351974	0.007051
0.45829	0.00465
0.576103	0.004452
0.711607	0.007659
0.848477	0.016046
1.18536	0.027686
1.5166	0.015545
2.19467	0.027154
3.17578	0.050692
4.13533	0.038536
5.01834	0.062226
6.64997	0.085839
8.50746	0.109484
9.9669	0.133204
12.5265	0.204577
14.6737	0.264082
17.1846	0.419016
19.4026	1.02726
22.3028	1.54006
24.7759	1.68311
27.5233	1.83809
29.0095	1.90962
