Adsorption isotherm of Carbon Dioxide on ZIF-7
DOI: 10.1021/jacs.5b08362
Article source: Figure 2b
Adsorbate Carbon Dioxide: InChIKey CURLTUGMZLYLDI-UHFFFAOYSA-N
Kind: experiment
Temperature: 196 K
Tabular data in the source: 0
pressure (bar)	uptake (mmol/g)
0.000164	0.142857
0.000237	0.178571
0.000308	0.214286
0.000381	0.261905
0.000446	0.297619
0.000478	0.333333
0.000532	0.392857
0.00058	0.47619
0.000634	0.571429
0.000656	0.678571
0.000679	0.785714
0.000691	0.880952
0.000703	0.964286
0.000716	1.05952
0.000728	1.16667
0.000741	1.2619
0.000754	1.34524
0.000767	1.45238
0.00078	1.54762
0.000808	1.64286
0.000822	1.75
0.000867	1.83333
0.000897	1.94048
0.000962	2.03571
0.001088	2.15476
0.001275	2.25
0.00163	2.33333
0.002238	2.41667
0.005488	2.55952
0.010523	2.63095
0.016921	2.69048
0.020176	2.70238
0.023226	2.71429
0.027692	2.75
0.030777	2.7381
0.033604	2.78571
0.037348	2.77381
0.038683	2.79762
0.043756	2.78571
0.045317	2.83333
0.051262	2.80952
0.053086	2.89286
0.056967	2.83333
0.060039	2.92857
0.064432	2.85714
0.070329	3
0.070349	2.90476
0.078134	3.11905
0.078172	2.95238
0.08528	3.28571
0.089847	3.5
0.098046	3.72619
0.103495	3.28571
0.107002	3.92857
0.123137	4.04762
0.127623	3.84524
0.144228	4.14286
0.166066	4.08333
0.191086	4.2381
0.212403	4.17857
0.235977	4.29762
0.262295	4.25
0.271638	4.32143
0.296599	4.34524
0.307213	4.35714
0.312745	4.27381
0.347472	4.38095
0.366294	4.39286
0.372881	4.32143
0.40708	4.40476
0.429131	4.41667
0.436828	4.35714
0.452387	4.42857
0.485344	4.45238
0.485423	4.39286
0.511729	4.40476
0.539449	4.41667
0.589034	4.44048
0.599405	4.4881
0.631946	4.46429
0.678	4.4881
0.678016	4.47619
0.71476	4.4881
0.780441	4.5119
0.808351	4.53571
0.89838	4.53571
