Adsorption isotherm of Carbon Dioxide on ZIF-7
DOI: 10.1021/jacs.5b08362
Article source: Figure 2a
Adsorbate Carbon Dioxide: InChIKey CURLTUGMZLYLDI-UHFFFAOYSA-N
Kind: experiment
Temperature: 301 K
Tabular data in the source: 0
pressure (bar)	uptake (mmol/g)
0	0
0.101021	0.059941
0.151227	0.107875
0.252655	0.143864
0.302861	0.191798
0.336976	1.18583
0.346752	0.610986
0.428221	1.82062
0.454291	0.287697
0.476797	1.96436
0.502663	0.443415
0.527002	2.01229
0.547776	0.790747
0.591668	1.20994
0.679043	2.07226
0.682302	1.88065
0.729045	2.13217
0.731081	2.01241
0.831492	2.10828
0.88129	2.18017
0.932921	2.14427
1.03333	2.24014
1.23741	2.24026
1.33843	2.3002
1.59272	2.34826
2.71352	2.44474
3.42638	2.529
3.88556	2.52927
5.21024	2.63785
5.3131	2.59001
6.68961	2.65071
7.09675	2.71084
8.01532	2.69941
8.83041	2.77175
9.49428	2.73622
10.7684	2.82082
10.82	2.78492
12.1969	2.82167
12.6043	2.86982
13.5228	2.8584
14.4404	2.90685
14.9506	2.90716
16.3269	2.97984
16.3275	2.94391
17.6534	2.98063
18.163	3.01686
19.0303	3.01738
19.9985	3.08982
20.356	3.06608
21.7329	3.10283
21.8852	3.15083
23.0078	3.13953
23.5168	3.21169
24.4868	3.17634
25.4035	3.2727
25.8125	3.22504
27.1892	3.27377
27.239	3.34565
28.4639	3.32243
29.5335	3.43086
29.9425	3.3832
31.2159	3.50372
31.2682	3.4319
32.6445	3.50458
32.8984	3.57659
34.072	3.56531
34.7334	3.67349
35.4483	3.63799
36.6704	3.78244
36.7734	3.72262
38.1495	3.80728
38.4032	3.89126
39.5254	3.90391
