Adsorption isotherm of Carbon Dioxide on ZIF-7
DOI: 10.1021/jacs.5b08362
Article source: Figure 2a
Adsorbate Carbon Dioxide: InChIKey CURLTUGMZLYLDI-UHFFFAOYSA-N
Kind: experiment
Temperature: 523 K
Tabular data in the source: 0
pressure (bar)	uptake (mmol/g)
0	0
0.255303	0.011823
0.459383	0.011701
0.867542	0.011457
1.17366	0.011273
1.47978	0.01109
1.98998	0.010784
2.49997	0.001497
2.75487	0.013626
3.67343	0.0022
4.48955	0.014664
6.42789	0.039777
8.16216	0.064768
11.2732	0.138487
13.8231	0.199894
17.1886	0.309694
20.9614	0.467642
23.7145	0.589051
26.1098	0.746174
27.6387	0.842897
28.9126	0.939469
30.0844	1.03598
31.1528	1.21626
32.1181	1.45636
33.0826	1.74436
34.1503	1.96057
35.9811	2.30897
