Adsorption isotherm of Carbon Dioxide on ZIF-7
DOI: 10.1021/jacs.5b08362
Article source: Figure 2b
Adsorbate Carbon Dioxide: InChIKey CURLTUGMZLYLDI-UHFFFAOYSA-N
Kind: experiment
Temperature: 338 K
Tabular data in the source: 0
pressure (bar)	uptake (mmol/g)
0.083123	0.018052
0.122431	0.005789
0.151217	0.017536
0.289988	0.028902
0.527509	0.052242
0.910039	0.13527
0.959555	0.075582
1.29173	0.731389
1.38255	1.56632
1.438	0.158732
1.562	1.95985
1.7112	0.862359
1.7356	2.03133
1.96323	2.0193
2.03311	2.09084
2.25933	2.12653
2.60064	2.1622
2.78991	2.20985
3.15537	2.24553
3.32606	2.28127
3.82842	2.32886
3.89682	2.29306
4.4857	2.3168
4.98437	2.37635
5.25497	2.35244
5.4429	2.37627
5.73773	2.38815
6.04839	2.41196
6.37617	2.42385
6.84038	2.45957
7.08517	2.47147
7.46913	2.48335
7.73624	2.50718
8.44773	2.5071
9.06338	2.5309
9.5541	2.55471
9.89601	2.56661
10.2501	2.57851
10.9974	2.59038
11.5931	2.60226
12.4374	2.63798
