Adsorption isotherm of Carbon Dioxide on ZIF-7
DOI: 10.1021/jacs.5b08362
Article source: Figure 2a
Adsorbate Carbon Dioxide: InChIKey CURLTUGMZLYLDI-UHFFFAOYSA-N
Kind: experiment
Temperature: 383 K
Tabular data in the source: 0
pressure (bar)	uptake (mmol/g)
0	0
0.407955	0.01222
0.815911	0.024441
1.22387	0.036661
1.58101	0.036875
1.78488	0.048973
2.29467	0.07323
2.59998	0.121317
2.95651	0.157459
3.21079	0.205515
3.31426	0.121745
3.61589	0.385399
3.72221	0.133965
3.91427	0.840667
4.15736	1.5474
4.2318	0.170199
4.50981	1.82306
4.58772	0.242268
5.03854	0.733556
5.27613	1.76364
5.42654	1.91942
5.93654	1.9317
6.54796	1.97997
6.70041	2.01599
7.05734	2.02818
7.51612	2.0524
8.02591	2.07666
8.07672	2.08867
8.5357	2.10092
9.30039	2.13731
9.8612	2.16159
10.5751	2.18597
11.4928	2.22245
12.7679	2.24717
