Adsorption isotherm of Carbon Dioxide on ZIF-7
DOI: 10.1021/jacs.5b08362
Article source: Figure 2a
Adsorbate Carbon Dioxide: InChIKey CURLTUGMZLYLDI-UHFFFAOYSA-N
Kind: experiment
Temperature: 338 K
Tabular data in the source: 0
pressure (bar)	uptake (mmol/g)
0	0
0.305712	0.024135
0.611628	0.036294
0.8153	0.060368
0.967545	0.108364
1.06999	0.084473
1.32468	0.108578
1.36552	0.707405
1.45351	1.5338
1.52795	0.156604
1.54883	1.92907
1.72022	0.851329
1.85352	2.01309
1.95556	2.01315
2.00576	2.06108
2.31107	2.10917
2.61637	2.15726
2.92229	2.16941
3.17678	2.2055
3.27841	2.22951
3.43106	2.25355
3.83881	2.27775
3.94024	2.31374
4.39922	2.32599
4.85779	2.36219
5.41839	2.39845
5.82594	2.43463
6.28471	2.45885
6.64165	2.47104
6.94756	2.4832
7.35552	2.49542
7.76348	2.50764
7.91633	2.51971
8.27327	2.5319
8.32408	2.54391
9.19122	2.5564
9.80325	2.56874
10.4659	2.60507
11.3841	2.6176
12.6081	2.64228
