Adsorption isotherm of Carbon Dioxide on ZIF-7
DOI: 10.1021/jacs.5b08362
Article source: Figure 2b
Adsorbate Carbon Dioxide: InChIKey CURLTUGMZLYLDI-UHFFFAOYSA-N
Kind: experiment
Temperature: 263 K
Tabular data in the source: 0
pressure (bar)	uptake (mmol/g)
0.002833	0.032898
0.066066	0.316461
0.090544	0.864897
0.11543	2.08139
0.121722	1.98591
0.15564	2.18848
0.26846	2.33116
0.368468	2.3786
0.409449	2.42622
0.488214	2.43799
0.561979	2.47366
0.67007	2.49736
0.785019	2.52108
0.872389	2.54485
0.952489	2.59249
0.952599	2.5567
1.09638	2.62815
1.19729	2.61615
1.28446	2.65187
1.47863	2.66368
2.41986	2.7229
3.38018	2.78225
3.96013	2.79404
5.24747	2.84151
6.48022	2.90097
6.95168	2.96055
8.00147	3.00814
9.53894	3.09149
10.5986	3.1749
11.9826	3.34179
12.6282	3.4491
13.3104	3.5087
14.2574	4.0812
14.5248	3.74719
16.1083	4.46281
16.1232	4.15267
17.5772	4.71323
17.5841	4.58202
18.2008	4.83248
19.1787	4.98751
19.5173	5.02328
20.5575	5.32145
20.9252	5.27372
22.043	5.5361
