Adsorption isotherm of Carbon Dioxide on ZIF-7
DOI: 10.1021/jacs.5b08362
Article source: Figure 2b
Adsorbate Carbon Dioxide: InChIKey CURLTUGMZLYLDI-UHFFFAOYSA-N
Kind: experiment
Temperature: 383 K
Tabular data in the source: 0
pressure (bar)	uptake (mmol/g)
0.156639	0.005577
0.243209	0.005197
0.300393	0.016943
0.536908	0.02837
0.994031	0.039767
1.34066	0.051437
1.41332	0.06332
1.51639	0.063259
1.62693	0.075126
1.71518	0.063153
1.80805	0.086964
1.93995	0.086903
2.15591	0.09874
2.23321	0.086781
2.4386	0.098634
2.4817	0.122476
2.80679	0.158155
2.80724	0.098512
3.0119	0.11038
3.11896	0.205777
3.52598	0.384598
3.52858	0.1341
3.7779	0.861675
3.78582	0.145968
3.9213	0.157866
4.04529	1.54154
4.06153	0.181692
4.35722	0.217417
4.41388	1.81582
4.51274	0.265101
5.0083	0.742148
5.26453	1.73216
5.35525	1.91108
5.74579	1.91102
5.95073	1.9587
6.38411	1.99442
6.84904	2.03015
7.09414	2.04205
7.61097	2.06584
8.31055	2.08962
8.60776	2.11345
9.23485	2.13725
9.90741	2.17297
10.6297	2.18484
11.2047	2.22058
12.6727	2.24433
