Adsorption isotherm of Argon on COF-6
DOI: 10.1021/Ja0751781
Adsorbate Argon: InChIKey XKRFYHLGVUSROY-UHFFFAOYSA-N
Temperature: 87 K
Tabular data in the source: 0
pressure (bar)	uptake (cm3(STP)/g)
0.00400996	11.7978
0.00837971	195.327
0.0367831	219.798
0.100144	235.092
0.150397	235.092
0.250901	238.151
0.449724	253.445
0.497791	256.504
0.554598	256.504
0.648548	265.68
0.751237	265.68
0.849556	274.857
0.906363	287.092
0.95006	311.563
0.998128	464.504
