Adsorption isotherm of Argon on COF-8
DOI: 10.1021/Ja0751781
Adsorbate Argon: InChIKey XKRFYHLGVUSROY-UHFFFAOYSA-N
Temperature: 87 K
Tabular data in the source: 0
pressure (bar)	uptake (cm3(STP)/g)
0.00619484	11.7978
0.0171192	262.621
0.0389679	366.621
0.0477074	440.033
0.0979595	498.151
0.154766	501.21
0.253086	516.504
0.449724	537.915
0.550228	547.092
0.655102	550.151
0.751237	553.21
0.856111	565.445
0.912918	574.621
0.95006	580.739
0.995943	666.386
