Adsorption isotherm of Argon on COF-10
DOI: 10.1021/Ja0751781
Adsorbate Argon: InChIKey XKRFYHLGVUSROY-UHFFFAOYSA-N
Temperature: 87 K
Tabular data in the source: 0
pressure (bar)	uptake (cm3(STP)/g)
0.0127495	140.268
0.0258587	277.915
0.0586318	375.798
0.119808	452.268
0.17443	510.386
0.237791	605.21
0.257455	644.974
0.279304	767.327
0.294598	1008.97
0.364514	1054.86
0.504346	1088.5
0.655102	1119.09
0.799304	1146.62
0.901993	1174.15
0.947875	1213.92
0.993758	1336.27
