Adsorption isotherm of Oxygen on LiLSX Zeolite
DOI: 10.1021/je900539m
Article source: Table 10
Adsorbate Oxygen: InChIKey MYMOFIZGZYHOMD-UHFFFAOYSA-N
Kind: experiment
Temperature: 303 K
Tabular data in the source: 0
pressure (bar)	uptake (mmol/g)
0.13	0.014
0.37	0.043
0.64	0.08
0.92	0.118
1.18	0.15
1.46	0.19
1.77	0.23
2.08	0.272
2.39	0.315
2.76	0.367
3.11	0.412
3.58	0.474
4.15	0.546
4.75	0.629
5.86	0.755
6.9	0.875
8.12	1.016
9.17	1.133
10.37	1.252
11.56	1.374
12.76	1.498
14.06	1.625
15.56	1.754
16.85	1.867
18.29	1.981
19.85	2.108
21.44	2.226
23.29	2.357
25.41	2.49
28.53	2.655
