Adsorption isotherm of Nitrogen, Oxygen on KLSX Zeolite
DOI: 10.1021/je900539m
Article source: Table 14
Adsorbate Nitrogen: InChIKey IJGRMHOSHXDMSA-UHFFFAOYSA-N
Adsorbate Oxygen: InChIKey MYMOFIZGZYHOMD-UHFFFAOYSA-N
Kind: experiment
Temperature: 303 K
Tabular data in the source: 0
pressure (bar)	Nitrogen fraction	Nitrogen uptake (mmol/g)	Oxygen fraction	Oxygen uptake (mmol/g)	total uptake (mmol/g)
4	0.818	0.58	0.182	0.06	
4	0.734	0.55	0.266	0.09	
4	0.337	0.27	0.663	0.22	
