Adsorption isotherm of Nitrogen on LiLSX Zeolite
DOI: 10.1021/je900539m
Article source: Table 5
Adsorbate Nitrogen: InChIKey IJGRMHOSHXDMSA-UHFFFAOYSA-N
Kind: experiment
Temperature: 303 K
Tabular data in the source: 0
pressure (bar)	uptake (mmol/g)
0.09	0.109
0.26	0.267
0.42	0.396
0.6	0.529
0.81	0.66
1.06	0.794
1.31	0.917
1.58	1.03
1.92	1.152
2.27	1.27
2.66	1.391
3.12	1.508
3.67	1.634
4.47	1.786
5.48	1.942
6.65	2.094
7.74	2.232
8.85	2.349
9.99	2.468
11.33	2.581
12.56	2.688
13.81	2.78
15.23	2.881
16.56	2.975
18.09	3.062
19.7	3.16
21.36	3.24
23.39	3.331
25.63	3.422
28.49	3.515
