Adsorption isotherm of Nitrogen, Oxygen on NaLSX Zeolite
DOI: 10.1021/je900539m
Article source: Table 13
Adsorbate Nitrogen: InChIKey IJGRMHOSHXDMSA-UHFFFAOYSA-N
Adsorbate Oxygen: InChIKey MYMOFIZGZYHOMD-UHFFFAOYSA-N
Kind: experiment
Temperature: 303 K
Tabular data in the source: 0
pressure (bar)	Nitrogen fraction	Nitrogen uptake (mmol/g)	Oxygen fraction	Oxygen uptake (mmol/g)	total uptake (mmol/g)
4	0.779	0.89	0.221	0.1	
4	0.685	0.82	0.315	0.1	
4	0.579	0.68	0.421	0.14	
4	0.484	0.55	0.516	0.24	
4	0.386	0.49	0.614	0.22	
4	0.271	0.3	0.729	0.29	
