Adsorption isotherm of Nitrogen on KLSX Zeolite
DOI: 10.1021/je900539m
Article source: Table 4
Adsorbate Nitrogen: InChIKey IJGRMHOSHXDMSA-UHFFFAOYSA-N
Kind: experiment
Temperature: 303 K
Tabular data in the source: 0
pressure (bar)	uptake (mmol/g)
0.13	0.026
0.39	0.084
0.62	0.135
0.9	0.194
1.17	0.247
1.43	0.298
1.7	0.35
2	0.405
2.32	0.46
2.74	0.531
3.13	0.593
3.52	0.653
4.03	0.727
4.66	0.812
5.66	0.935
6.75	1.055
7.93	1.172
9.03	1.274
10.13	1.364
11.37	1.457
12.61	1.538
13.79	1.61
16.02	1.718
17.83	1.805
19.14	1.864
20.54	1.917
22.1	1.97
23.9	2.024
25.88	2.079
28.54	2.14
