Adsorption isotherm of Oxygen on KLSX Zeolite
DOI: 10.1021/je900539m
Article source: Table 9
Adsorbate Oxygen: InChIKey MYMOFIZGZYHOMD-UHFFFAOYSA-N
Kind: experiment
Temperature: 303 K
Tabular data in the source: 0
pressure (bar)	uptake (mmol/g)
0.16	0.016
0.41	0.045
0.69	0.076
0.96	0.106
1.25	0.138
1.53	0.17
1.82	0.2
2.16	0.235
2.46	0.268
2.79	0.3
3.13	0.335
3.61	0.381
4.15	0.43
4.7	0.483
5.85	0.581
6.93	0.672
8.12	0.767
9.26	0.853
10.47	0.941
11.59	1.017
12.93	1.102
14.29	1.185
15.58	1.257
16.94	1.331
18.44	1.406
20.03	1.477
21.69	1.55
23.45	1.619
25.59	1.694
28.52	1.786
