Adsorption isotherm of Nitrogen on LiLSXhm Zeolite
DOI: 10.1021/je900539m
Article source: Table 6
Adsorbate Nitrogen: InChIKey IJGRMHOSHXDMSA-UHFFFAOYSA-N
Kind: experiment
Temperature: 303 K
Tabular data in the source: 0
pressure (bar)	uptake (mmol/g)
0.1	0.138
0.28	0.319
0.47	0.494
0.7	0.652
0.94	0.794
1.2	0.928
1.49	1.054
1.87	1.189
2.18	1.291
2.51	1.393
2.91	1.495
3.33	1.59
3.86	1.693
4.58	1.825
5.59	1.966
6.68	2.109
7.77	2.234
9.02	2.35
10.14	2.44
11.29	2.531
12.54	2.622
13.92	2.704
15.3	2.778
16.69	2.852
18.13	2.926
19.76	2.992
21.48	3.058
23.44	3.124
25.69	3.191
28.52	3.267
