Adsorption isotherm of Nitrogen on NaLSX Zeolite
DOI: 10.1021/je900539m
Article source: Table 3
Adsorbate Nitrogen: InChIKey IJGRMHOSHXDMSA-UHFFFAOYSA-N
Kind: experiment
Temperature: 303 K
Tabular data in the source: 0
pressure (bar)	uptake (mmol/g)
0.14	0.051
0.35	0.131
0.59	0.215
0.92	0.329
1.2	0.42
1.47	0.504
1.74	0.587
2.09	0.686
2.41	0.773
2.73	0.857
3.12	0.952
3.57	1.057
3.99	1.15
4.65	1.279
5.75	1.472
6.77	1.636
7.95	1.798
9.01	1.933
10.27	2.068
11.43	2.184
12.66	2.291
13.91	2.392
15.28	2.49
16.62	2.573
18.07	2.655
19.64	2.736
21.67	2.823
23.53	2.9
25.63	2.972
28.5	3.055
