Adsorption isotherm of Nitrogen, Oxygen on LiLSX Zeolite
DOI: 10.1021/je900539m
Article source: Table 15
Adsorbate Nitrogen: InChIKey IJGRMHOSHXDMSA-UHFFFAOYSA-N
Adsorbate Oxygen: InChIKey MYMOFIZGZYHOMD-UHFFFAOYSA-N
Kind: experiment
Temperature: 303 K
Tabular data in the source: 0
pressure (bar)	Nitrogen fraction	Nitrogen uptake (mmol/g)	Oxygen fraction	Oxygen uptake (mmol/g)	total uptake (mmol/g)
4	1	1.71	0	0	
4	0.759	1.38	0.241	0.096	
4	0.433	1.03	0.567	0.25	
4	0.201	0.73	0.799	0.31	
4	0.148	0.503	0.852	0.4	
4	0.064	0.274	0.936	0.46	
