Adsorption isotherm of Oxygen on NaLSX Zeolite
DOI: 10.1021/je900539m
Article source: Table 8
Adsorbate Oxygen: InChIKey MYMOFIZGZYHOMD-UHFFFAOYSA-N
Kind: experiment
Temperature: 303 K
Tabular data in the source: 0
pressure (bar)	uptake (mmol/g)
0.13	0.019
0.41	0.05
0.68	0.08
0.94	0.11
1.22	0.14
1.52	0.173
1.8	0.203
2.12	0.236
2.42	0.269
2.77	0.305
3.16	0.345
3.57	0.389
4.14	0.445
4.74	0.504
5.79	0.601
6.84	0.698
7.94	0.796
9.08	0.895
10.24	0.99
11.41	1.083
12.64	1.176
13.91	1.269
15.28	1.365
16.61	1.453
18.06	1.544
19.62	1.636
21.38	1.733
23.32	1.834
25.54	1.94
28.47	2.066
