Adsorption isotherm of Oxygen on Zeolite 13X
DOI: 10.1021/je900539m
Article source: Table 7
Adsorbate Oxygen: InChIKey MYMOFIZGZYHOMD-UHFFFAOYSA-N
Kind: experiment
Temperature: 303 K
Tabular data in the source: 0
pressure (bar)	uptake (mmol/g)
0.14	0.014
0.4	0.049
0.67	0.084
0.94	0.12
1.2	0.153
1.51	0.192
1.78	0.223
2.14	0.268
2.48	0.311
2.8	0.348
3.21	0.398
3.66	0.451
4.11	0.504
4.68	0.569
5.8	0.688
6.9	0.802
8.08	0.921
9.17	1.028
10.35	1.136
11.61	1.247
12.81	1.348
14.04	1.45
15.35	1.547
16.68	1.645
18.15	1.744
19.66	1.844
21.38	1.947
23.26	2.051
25.51	2.165
28.51	2.299
