Adsorption isotherm of Nitrogen, Oxygen on Zeolite 13X
DOI: 10.1021/je900539m
Article source: Table 12
Adsorbate Nitrogen: InChIKey IJGRMHOSHXDMSA-UHFFFAOYSA-N
Adsorbate Oxygen: InChIKey MYMOFIZGZYHOMD-UHFFFAOYSA-N
Kind: experiment
Temperature: 303 K
Tabular data in the source: 0
pressure (bar)	Nitrogen fraction	Nitrogen uptake (mmol/g)	Oxygen fraction	Oxygen uptake (mmol/g)	total uptake (mmol/g)
4	0.65	0.95	0.35	0.24	
4	0.551	0.82	0.449	0.25	
4	0.454	0.69	0.546	0.3	
4	0.362	0.55	0.638	0.35	
4	0.228	0.32	0.772	0.45	
