Adsorption isotherm of Nitrogen on Zeolite 13X
DOI: 10.1021/je900539m
Article source: Table 2
Adsorbate Nitrogen: InChIKey IJGRMHOSHXDMSA-UHFFFAOYSA-N
Kind: experiment
Temperature: 303 K
Tabular data in the source: 0
pressure (bar)	uptake (mmol/g)
0.14	0.061
0.36	0.156
0.61	0.258
0.82	0.346
1.06	0.436
1.33	0.531
1.61	0.626
1.93	0.727
2.24	0.822
2.56	0.914
2.94	1.013
3.33	1.113
3.87	1.237
4.62	1.39
5.68	1.584
6.77	1.763
7.84	1.92
8.96	2.066
10.26	2.214
11.52	2.343
12.75	2.457
14.08	2.565
15.44	2.666
16.96	2.763
18.45	2.85
20.02	2.933
21.68	3.012
23.51	3.088
25.73	3.165
28.66	3.254
