Adsorption isotherm of Oxygen on LiLSXhm Zeolite
DOI: 10.1021/je900539m
Article source: Table 11
Adsorbate Oxygen: InChIKey MYMOFIZGZYHOMD-UHFFFAOYSA-N
Kind: experiment
Temperature: 303 K
Tabular data in the source: 0
pressure (bar)	uptake (mmol/g)
0.17	0.018
0.42	0.054
0.69	0.1
0.95	0.136
1.21	0.182
1.51	0.22
1.79	0.257
2.1	0.304
2.41	0.351
2.77	0.399
3.16	0.446
3.62	0.494
4.08	0.562
4.71	0.639
5.75	0.754
6.88	0.879
8.08	0.995
9.19	1.103
10.41	1.212
11.64	1.321
12.93	1.43
14.25	1.531
15.56	1.642
16.95	1.744
18.37	1.847
19.84	1.95
21.54	2.054
23.49	2.168
25.6	2.273
28.47	2.408
