Adsorption isotherm of Nitrogen, Oxygen on LiLSXhm Zeolite
DOI: 10.1021/je900539m
Article source: Table 16
Adsorbate Nitrogen: InChIKey IJGRMHOSHXDMSA-UHFFFAOYSA-N
Adsorbate Oxygen: InChIKey MYMOFIZGZYHOMD-UHFFFAOYSA-N
Kind: experiment
Temperature: 303 K
Tabular data in the source: 0
pressure (bar)	Nitrogen fraction	Nitrogen uptake (mmol/g)	Oxygen fraction	Oxygen uptake (mmol/g)	total uptake (mmol/g)
4	0.713	1.44	0.287	0.096	
4	0.47	1.17	0.53	0.19	
4	0.376	1.02	0.624	0.23	
4	0.258	0.832	0.742	0.27	
4	0.204	0.632	0.796	0.35	
4	0.1	0.43	0.9	0.39	
4	0.038	0.254	0.962	0.42	
4	0.017	0.18	0.983	0.5	
