Adsorption isotherm of Nitrogen on PWA(2.0)/CuBTC
DOI: 10.1016/j.fuproc.2012.03.006
Adsorbate Nitrogen: InChIKey IJGRMHOSHXDMSA-UHFFFAOYSA-N
Temperature: 77 K
Tabular data in the source: 0
pressure (bar)	uptake (cm3(STP)/g)
0.00850554	211.768
0.0295896	214.196
0.0506826	215.473
0.069438	215.841
0.090531	217.118
0.109295	216.336
0.12806	215.554
0.146815	215.923
0.165588	213.99
0.186699	212.967
0.205473	211.034
0.226584	210.011
0.245357	208.078
0.264121	207.296
0.280539	206.756
0.303997	205.491
0.34389	201.384
0.37909	197.761
0.421321	194.564
0.458859	191.849
0.498752	187.743
0.533952	184.12
0.576183	180.923
0.592601	180.382
0.634832	177.185
0.672378	173.32
0.71229	166.913
0.752174	163.957
0.789712	161.243
0.827258	157.378
0.864796	154.663
0.888254	153.398
0.904689	150.557
0.928138	150.442
0.946884	151.961
0.963266	156.022
