Adsorption isotherm of Nitrogen on PWA(1.0)/CuBTC
DOI: 10.1016/j.fuproc.2012.03.006
Adsorbate Nitrogen: InChIKey IJGRMHOSHXDMSA-UHFFFAOYSA-N
Temperature: 77 K
Tabular data in the source: 0
pressure (bar)	uptake (cm3(STP)/g)
0.00775029	308.398
0.0288253	311.975
0.052247	315.312
0.0897308	319.5
0.127232	321.387
0.167108	319.581
0.204628	319.167
0.225748	316.993
0.263294	313.129
0.30317	311.323
0.343054	308.367
0.378245	305.894
0.415792	302.03
0.455676	299.074
0.495569	294.967
0.519027	293.702
0.554227	290.079
0.594111	287.123
0.631649	284.409
0.669196	280.544
0.709089	276.438
0.75132	273.24
0.791213	269.134
0.847515	265.638
0.8874	262.682
0.903808	263.292
0.927266	262.026
0.962385	268.756
