Adsorption isotherm of Nitrogen on CuBTC
DOI: 10.1016/j.fuproc.2012.03.006
Adsorbate Nitrogen: InChIKey IJGRMHOSHXDMSA-UHFFFAOYSA-N
Temperature: 77 K
Tabular data in the source: 0
pressure (bar)	uptake (cm3(STP)/g)
0.00990815	332.313
0.0333299	335.65
0.0520582	339.469
0.0708046	340.988
0.089533	344.807
0.110626	346.084
0.127035	346.694
0.150483	346.579
0.173932	346.465
0.190332	348.225
0.206767	345.384
0.225532	344.602
0.24194	345.212
0.26306	343.038
0.286527	340.622
0.302945	340.082
0.324056	339.058
0.338118	339.91
0.361584	337.494
0.382695	336.471
0.403806	335.447
0.417895	332.847
0.439006	331.824
0.462464	330.559
0.478882	330.018
0.497664	326.936
0.514082	326.395
0.535193	325.372
0.558651	324.106
0.575077	322.416
0.589166	319.816
0.610268	319.943
0.668935	313.904
0.690055	311.73
0.708819	310.948
0.729939	308.774
0.746366	307.083
0.769833	304.668
0.809717	301.712
0.826144	300.021
0.847255	298.998
0.868375	296.824
0.884792	296.283
0.905894	296.41
0.924668	294.478
0.943423	294.846
0.962169	296.365
