Adsorption isotherm of Nitrogen on PWA(0.5)/CuBTC
DOI: 10.1016/j.fuproc.2012.03.006
Adsorbate Nitrogen: InChIKey IJGRMHOSHXDMSA-UHFFFAOYSA-N
Temperature: 77 K
Tabular data in the source: 0
pressure (bar)	uptake (cm3(STP)/g)
0.00763341	323.352
0.0287174	325.78
0.0497835	330.508
0.0849206	334.937
0.106005	337.365
0.14588	335.559
0.185746	334.904
0.220937	332.431
0.260813	330.625
0.28427	329.36
0.321817	325.496
0.356999	324.173
0.401568	321.884
0.436777	317.111
0.481354	313.672
0.518883	312.108
0.551736	308.726
0.59163	304.62
0.636207	301.181
0.669052	298.95
0.711292	294.602
0.748829	291.887
0.786376	288.023
0.823914	285.308
0.863798	282.352
0.884927	279.028
0.908376	278.913
0.924793	278.373
0.962331	275.658
