Adsorption isotherm of Hydrogen on IFMC-16
DOI: 10.1039/C3ta12662e
Adsorbate Hydrogen: InChIKey UFHFLCQGNIYNRP-UHFFFAOYSA-N
Temperature: 87 K
Tabular data in the source: 0
pressure (bar)	uptake (wt%)
0.0267801	0.0498814
0.0714006	0.13569
0.131467	0.23866
0.215559	0.367373
0.24645	0.410277
0.402622	0.603347
0.509024	0.723479
0.617143	0.830739
0.732127	0.938
0.850542	1.03239
0.958661	1.1182
1.01186	1.1611
1.07021	1.19972
