Adsorption isotherm of Nitrogen on BT-IFMC-16
DOI: 10.1039/C3ta12662e
Adsorbate Nitrogen: InChIKey IJGRMHOSHXDMSA-UHFFFAOYSA-N
Temperature: 77 K
Tabular data in the source: 0
pressure (bar)	uptake (cm3(STP)/g)
0.0147704	120.453
0.0232211	153.317
0.0536437	165.805
0.138151	172.378
0.214207	176.979
0.329137	182.894
0.469418	186.181
0.526883	190.124
0.591108	195.383
0.672235	207.871
0.719559	219.045
0.978151	221.017
