Adsorption isotherm of Nitrogen on DBT-IFMC-16
DOI: 10.1039/C3ta12662e
Adsorbate Nitrogen: InChIKey IJGRMHOSHXDMSA-UHFFFAOYSA-N
Temperature: 77 K
Tabular data in the source: 0
pressure (bar)	uptake (cm3(STP)/g)
0.0181507	313.035
0.0350521	338.669
0.0874465	348.528
0.161813	357.73
0.236179	362.988
0.300404	364.303
0.37477	365.617
0.454207	366.275
0.515052	372.19
0.582658	373.505
0.663785	374.819
0.73139	376.791
0.989982	377.448
