Adsorption isotherm of Nitrogen on IFMC-16
DOI: 10.1039/C3ta12662e
Adsorbate Nitrogen: InChIKey IJGRMHOSHXDMSA-UHFFFAOYSA-N
Temperature: 77 K
Tabular data in the source: 0
pressure (bar)	uptake (cm3(STP)/g)
0.0253247	555.081
0.106451	584.659
0.202789	594.518
0.311804	600.433
0.425888	603.391
0.50448	607.335
0.555184	609.306
0.623635	613.25
0.702226	616.208
0.993775	619.166
