Adsorption isotherm of Hydrogen on IFMC-16
DOI: 10.1039/C3ta12662e
Adsorbate Hydrogen: InChIKey UFHFLCQGNIYNRP-UHFFFAOYSA-N
Temperature: 77 K
Tabular data in the source: 0
pressure (bar)	uptake (wt%)
0.0181992	0.118528
0.0319286	0.208627
0.0490903	0.298726
0.0731167	0.444601
0.110873	0.646251
0.162358	0.877934
0.213843	1.071
0.399189	1.63305
0.512457	1.89048
0.618859	2.10929
0.733843	2.30236
0.84711	2.48685
0.960377	2.66275
1.02044	2.72711
1.07021	2.79576
