Adsorption isotherm of Nitrogen on DBT-IFMC-16
DOI: 10.1039/C3ta12662e
Adsorbate Nitrogen: InChIKey IJGRMHOSHXDMSA-UHFFFAOYSA-N
Temperature: 77 K
Tabular data in the source: 0
pressure (bar)	uptake (cm3(STP)/g)
0.0130803	74.4437
0.0384324	88.2466
0.0992775	93.5048
0.156742	97.4484
0.236179	99.4203
0.357869	100.735
0.450827	103.364
0.511672	107.308
0.589418	115.195
0.662094	121.11
0.72632	127.683
0.986601	128.34
