Adsorption isotherm of Hydrogen on IFMC-16
DOI: 10.1039/C3ta12662e
Adsorbate Hydrogen: InChIKey UFHFLCQGNIYNRP-UHFFFAOYSA-N
Temperature: 77 K
Tabular data in the source: 0
pressure (bar)	uptake (wt%)
0.0280166	0.042345
0.0843546	0.388824
0.211115	0.997275
0.380129	1.47051
0.661819	2.09587
0.957594	2.56911
1.30971	3.00009
1.98576	3.56629
2.68999	3.97192
3.39421	4.2677
4.30971	4.59727
5.39421	4.82544
6.36604	4.98601
7.36604	5.09587
8.35196	5.17192
8.98576	5.19727
9.5914	5.21418
