Adsorption isotherm of Nitrogen on IFMC-16
DOI: 10.1039/C3ta12662e
Adsorbate Nitrogen: InChIKey IJGRMHOSHXDMSA-UHFFFAOYSA-N
Temperature: 77 K
Tabular data in the source: 0
pressure (bar)	uptake (cm3(STP)/g)
0.0227895	538.321
0.0658881	560.011
0.111522	574.799
0.169832	585.644
0.238282	596.49
0.707296	610.292
0.785888	611.278
0.856874	610.292
0.917719	607.335
0.993775	604.377
