Adsorption isotherm of Nitrogen on IFMC-16
DOI: 10.1039/C3ta12662e
Adsorbate Nitrogen: InChIKey IJGRMHOSHXDMSA-UHFFFAOYSA-N
Temperature: 77 K
Tabular data in the source: 0
pressure (bar)	uptake (cm3(STP)/g)
0.00250777	9.86983
0.00757819	527.475
0.0101134	363.813
0.017719	579.729
0.0760289	620.151
0.225606	640.856
0.517156	652.687
0.580536	653.673
0.659127	654.659
0.727578	658.602
0.808705	662.546
0.892367	665.504
0.983635	665.504
