Adsorption isotherm of Nitrogen on BT-IFMC-16
DOI: 10.1039/C3ta12662e
Adsorbate Nitrogen: InChIKey IJGRMHOSHXDMSA-UHFFFAOYSA-N
Temperature: 77 K
Tabular data in the source: 0
pressure (bar)	uptake (cm3(STP)/g)
0.0151838	233.673
0.0227895	355.926
0.0557472	374.659
0.119127	381.56
0.21293	389.447
0.314339	392.405
0.395466	393.391
0.463916	393.391
0.517156	395.363
0.598282	397.335
0.676874	397.335
0.758001	398.321
0.86955	398.321
0.98617	399.306
