Adsorption isotherm of Nitrogen on MIL-53(Al) (50%)
DOI: 10.1039/c5ta04154f
Article source: Figure S3
Adsorbate Nitrogen: InChIKey IJGRMHOSHXDMSA-UHFFFAOYSA-N
Kind: experiment
Temperature: 77 K
Tabular data in the source: 0
pressure (bar)	uptake (cm3(STP)/g)
0	14.8148
0.010929	20.619
0.01776	21.9116
0.031421	24.4969
0.035519	25.1437
0.039617	25.1463
0.04918	26.4407
0.057377	27.0901
0.062841	27.0936
0.071038	27.743
0.084699	27.7518
0.090164	28.3995
0.092896	28.4012
0.103825	29.6965
0.106557	29.6983
0.113388	29.7027
0.120219	30.3512
0.122951	30.3529
0.132514	30.3591
0.137978	30.3626
0.143443	31.0103
0.165301	31.6685
0.185792	32.3258
0.20082	32.9796
0.206284	32.9831
0.226776	32.9963
0.245902	34.2969
0.265027	34.3092
0.285519	35.6106
0.307377	35.6247
0.327869	36.9262
0.349727	36.9402
0.371585	38.2426
0.387978	39.5414
0.393443	39.5449
0.40847	39.5546
0.430328	39.5686
0.452186	40.2269
0.454918	40.2286
0.469945	40.8824
0.491803	41.5406
0.512295	42.8421
0.519126	42.8465
0.531421	43.4985
0.54918	44.1541
0.572404	45.4573
0.581967	45.4634
0.594262	45.4713
0.613388	46.1278
0.627049	47.4248
0.63388	47.4292
0.655738	47.4433
0.67623	48.7448
0.692623	50.0436
0.696721	50.0462
0.714481	51.3459
0.736339	53.2923
0.756831	55.2379
0.777322	56.5393
0.797814	58.4849
0.81694	61.0737
0.825137	64.9437
0.840164	63.021
0.85929	68.1863
0.879781	73.3525
0.901639	79.8078
