Adsorption isotherm of Nitrogen on MIL-53(Al)
DOI: 10.1039/c5ta04154f
Article source: Figure S3
Adsorbate Nitrogen: InChIKey IJGRMHOSHXDMSA-UHFFFAOYSA-N
Kind: experiment
Temperature: 77 K
Tabular data in the source: 0
pressure (bar)	uptake (cm3(STP)/g)
0	0
0.001366	106.281
0.002732	120.453
0.004098	123.03
0.005464	126.896
0.009563	130.763
0.010929	134.629
0.013661	137.207
0.01776	139.786
0.021858	143.009
0.028688	145.59
0.035519	147.527
0.040984	148.819
0.04918	150.756
0.060109	152.696
0.06694	153.344
0.073771	154.637
0.086066	155.933
0.099727	157.874
0.107923	158.524
0.121585	159.821
0.136612	161.119
0.147541	161.77
0.153005	163.062
0.173497	163.719
0.196721	165.666
0.217213	167.612
0.244536	169.562
0.27459	171.513
0.290984	171.524
0.308743	174.112
0.337432	175.419
0.346995	176.069
0.385246	178.026
0.387978	179.316
0.43306	181.277
0.435792	182.567
0.479508	184.528
0.489071	186.466
0.525956	188.423
0.550546	190.371
0.57377	192.318
0.618852	196.856
0.622951	196.859
0.651639	200.098
0.699454	205.926
0.711749	207.866
0.752732	215.622
0.789617	222.731
0.807377	231.76
0.85929	262.067
0.881148	268.522
0.907104	349.699
