Adsorption isotherm of Nitrogen on MIL-53(Al) (50%)
DOI: 10.1039/c5ta04154f
Article source: Figure S3
Adsorbate Nitrogen: InChIKey IJGRMHOSHXDMSA-UHFFFAOYSA-N
Kind: experiment
Temperature: 77 K
Tabular data in the source: 0
pressure (bar)	uptake (cm3(STP)/g)
0	10.9501
0.001366	46.3777
0.002732	74.72
0.004098	77.2973
0.005464	81.8071
0.013661	85.6771
0.016393	87.6112
0.01776	88.2562
0.023224	90.1921
0.02459	90.8371
0.035519	93.4206
0.043716	94.7141
0.050546	96.0068
0.056011	97.2986
0.071038	98.5965
0.084699	99.2494
0.09153	99.8979
0.102459	100.549
0.107923	100.553
0.122951	101.851
0.135246	101.214
0.150273	103.8
0.154372	105.091
0.170765	104.458
0.196721	105.763
0.218579	107.065
0.241803	109.012
0.275956	110.323
0.288251	110.975
0.307377	111.631
0.337432	113.583
0.346995	114.233
0.382514	116.188
0.39071	116.194
0.431694	118.797
0.438525	118.801
0.479508	120.76
0.491803	121.412
0.527322	123.367
0.551913	124.671
0.575137	125.974
0.621585	129.869
0.669399	134.409
0.696721	135.07
0.698087	136.359
0.756831	144.771
0.786885	147.367
0.801913	153.818
0.85929	173.822
0.889344	184.148
0.905738	224.094
