Adsorption isotherm of Nitrogen on 3D-TPB-COF-OMe
DOI: 10.1021/jacs.1c03042
Article source: Figure S6
Adsorbate Nitrogen: InChIKey IJGRMHOSHXDMSA-UHFFFAOYSA-N
Kind: experiment
Temperature: 77 K
Tabular data in the source: 0
pressure (bar)	uptake ()
0.003795	163.077
0.003795	172.308
0.003795	178.462
0.00759	187.692
0.011385	195.385
0.018975	201.538
0.03036	206.154
0.041744	210.769
0.053129	213.846
0.064514	215.385
0.102463	218.462
0.153695	225.385
0.201132	230
0.254261	234.615
0.305493	236.923
0.356725	241.538
0.404162	243.846
0.455393	246.923
0.506625	250
0.557857	252.308
0.607191	254.615
0.658423	257.692
0.711552	261.538
0.762784	264.615
0.810221	269.231
0.859555	273.077
0.912684	280
0.962018	291.538
1.00187	327.692
0.962018	296.154
0.906992	282.308
0.857657	275.385
0.804528	270.769
0.758989	267.692
0.707757	264.615
0.658423	261.538
0.607191	257.692
0.554062	255.385
0.50283	253.077
0.457291	250
0.402264	247.692
0.354827	245.385
0.303596	240.769
0.254261	238.462
0.201132	235.385
0.151798	230.769
0.098669	226.154
0.053129	220
0.045539	215.385
0.034154	213.846
0.02277	207.692
0.01518	203.077
0.003795	195.385
0	189.231
