Adsorption isotherm of Nitrogen on 3D-TPB-COF-Ph
DOI: 10.1021/jacs.1c03042
Article source: Figure S6
Adsorbate Nitrogen: InChIKey IJGRMHOSHXDMSA-UHFFFAOYSA-N
Kind: experiment
Temperature: 77 K
Tabular data in the source: 0
pressure (bar)	uptake ()
0.003795	217.085
0.003795	247.236
0.003795	261.307
0.003795	277.387
0.003795	293.467
0.011385	311.558
0.02277	327.638
0.034154	334.673
0.045539	341.709
0.056924	343.719
1.00566	418.09
0.960121	406.03
0.910787	402.01
0.861452	396.985
0.808323	395.98
0.762784	393.97
0.709654	389.95
0.66032	387.94
0.610986	385.93
0.557857	383.92
0.51042	381.91
0.455393	379.9
0.406059	375.879
0.356725	375.879
0.301698	371.859
0.256159	368.844
0.203029	363.819
0.153695	359.799
0.102463	353.769
0	168.844
