Adsorption isotherm of Nitrogen on MIL-126
DOI: 10.1021/Cm300450x
Adsorbate Nitrogen: InChIKey IJGRMHOSHXDMSA-UHFFFAOYSA-N
Temperature: 77 K
Tabular data in the source: 0
pressure (bar)	uptake (cm3(STP)/g)
0.00609387	421.277
0.0176328	431.915
0.0330235	444.681
0.0503607	453.191
0.0542043	457.447
0.0735043	457.447
0.0927878	461.702
0.11015	463.83
0.129441	465.957
0.148733	468.085
0.168025	470.213
0.185387	472.34
0.204687	472.34
0.223987	472.34
0.243279	474.468
0.262579	474.468
0.28187	476.596
0.30117	476.596
0.32047	476.596
0.33977	476.596
0.35907	476.596
0.37837	476.596
0.39767	476.596
0.41697	476.596
0.43627	476.596
0.45557	476.596
0.471002	478.723
0.490302	478.723
0.509602	478.723
0.528902	478.723
0.548202	478.723
0.567502	478.723
0.586802	478.723
0.606102	478.723
0.625402	478.723
0.644702	478.723
0.664002	478.723
0.683302	478.723
0.702602	478.723
0.721902	478.723
0.741202	478.723
0.760502	478.723
0.779802	478.723
0.799102	478.723
0.818402	478.723
0.837702	478.723
0.857002	478.723
0.876302	478.723
0.895602	478.723
0.914902	478.723
0.934202	478.723
0.953502	478.723
0.972802	478.723
0.992102	478.723
1.01139	480.851
