Adsorption isotherm of Carbon Dioxide on PCM-15
DOI: 10.1039/C2dt30138e
Adsorbate Carbon Dioxide: InChIKey CURLTUGMZLYLDI-UHFFFAOYSA-N
Temperature: 278 K
Tabular data in the source: 0
pressure (bar)	uptake (cm3(STP)/g)
0.026087	2.28229
0.0478261	4.34304
0.076087	6.9927
0.1	9.05425
0.126087	11.4099
0.152174	13.4722
0.176087	15.2405
0.202174	18.7691
0.226087	20.5374
0.25	22.3057
0.276087	24.0748
0.302174	25.5507
0.326087	27.3189
0.35	29.0872
0.376087	30.5631
0.402174	32.3322
0.426087	33.8072
0.45	35.2823
0.476087	36.7581
0.5	38.2331
0.526087	40.0022
0.552174	41.4781
0.578261	42.6607
0.6	44.1349
0.626087	45.3175
0.652174	47.3798
0.673913	48.2676
0.7	49.1569
0.728261	50.9268
0.752174	52.4018
0.778261	53.2912
0.802174	54.1797
0.826087	55.6547
0.852174	56.8373
0.876087	58.0191
0.902174	59.2017
0.928261	60.091
0.952174	61.2728
0.978261	61.8689
