Adsorption isotherm of Oxygen on PCM-15
DOI: 10.1039/C2dt30138e
Adsorbate Oxygen: InChIKey MYMOFIZGZYHOMD-UHFFFAOYSA-N
Temperature: 77 K
Tabular data in the source: 0
pressure (bar)	uptake (cm3(STP)/g)
0.143148	238.784
0.15131	244.811
0.158839	249.839
0.165593	250.878
0.173609	253.917
0.182743	255.966
0.195132	259.033
0.200816	259.068
0.212137	261.132
0.222825	262.196
0.234146	264.259
0.240024	265.292
0.255961	266.389
0.261839	267.422
0.271022	267.48
0.281711	268.544
0.291769	268.607
0.307268	269.701
0.317956	270.765
0.328208	271.826
0.333893	271.861
0.344776	273.922
0.350023	273.955
0.353958	273.98
