Adsorption isotherm of Carbon Dioxide on PCM-15
DOI: 10.1039/C2dt30138e
Adsorbate Carbon Dioxide: InChIKey CURLTUGMZLYLDI-UHFFFAOYSA-N
Temperature: 196 K
Tabular data in the source: 0
pressure (bar)	uptake (cm3(STP)/g)
0.0254965	200.778
0.0561436	243.811
0.0865636	259.845
0.114401	268.875
0.142213	274.906
0.17254	279.939
0.200336	283.969
0.260965	291.036
0.314015	297.094
0.344309	298.127
0.372087	300.157
0.397342	302.185
0.430168	304.221
0.457938	305.251
0.485708	306.282
0.515993	306.315
0.54378	309.345
0.569035	311.373
0.629605	311.439
0.685162	315.5
0.715439	314.533
0.770987	317.594
0.803797	317.63
0.83409	318.663
0.854289	319.685
0.882051	319.715
0.917392	320.754
0.942638	321.782
0.967876	321.809
1.00069	322.845
1.0335	322.881
1.05622	322.906
1.08903	323.942
1.1168	323.972
1.14709	325.006
