Adsorption isotherm of Nitrogen on PCM-15
DOI: 10.1039/C2dt30138e
Adsorbate Nitrogen: InChIKey IJGRMHOSHXDMSA-UHFFFAOYSA-N
Temperature: 77 K
Tabular data in the source: 0
pressure (bar)	uptake (cm3(STP)/g)
0.0453395	194
0.0721268	204
0.0981334	207
0.14598	214
0.169735	216
0.19338	217
0.221302	218
0.244947	219
0.268591	220
0.289984	220
0.341551	222
0.390979	224
0.412373	224
0.438045	224
0.485222	225
0.511005	226
0.536789	227
0.583854	227
0.611666	227
0.633171	228
0.680236	228
0.701629	228
0.751057	230
0.825822	229
0.851606	230
0.877278	230
0.924343	230
0.947988	231
0.971632	232
0.991332	236
