Adsorption isotherm of Hydrogen on PCM-15
DOI: 10.1039/C2dt30138e
Adsorbate Hydrogen: InChIKey UFHFLCQGNIYNRP-UHFFFAOYSA-N
Temperature: 77 K
Tabular data in the source: 0
pressure (bar)	uptake (cm3(STP)/g)
1.88975	30
3.08248	49
4.40556	66
6.14513	80
7.85921	91
9.70363	100
11.5481	109
15.7186	123
17.4723	130
19.9542	136
24.3203	147
28.726	154
31.3382	158
33.4433	163
37.628	170
42.0989	176
46.8559	181
51.8339	186
56.149	191
60.906	196
65.663	201
70.6411	206
77.7384	209
80.1296	213
82.2092	215
86.9408	217
