Adsorption isotherm of Carbon Dioxide on PCM-15
DOI: 10.1039/C2dt30138e
Adsorbate Carbon Dioxide: InChIKey CURLTUGMZLYLDI-UHFFFAOYSA-N
Temperature: 298 K
Tabular data in the source: 0
pressure (bar)	uptake (cm3(STP)/g)
0.026087	1.40252
0.0478261	2.58351
0.076087	3.76689
0.104348	4.95027
0.126087	6.71777
0.15	8.48607
0.176087	9.3754
0.2	10.8504
0.226087	12.033
0.276087	14.3974
0.302174	15.58
0.35	18.2368
0.4	20.3079
0.45	22.6723
0.473913	24.1473
0.502174	24.7442
0.547826	27.107
0.576087	27.9971
0.6	28.8856
0.626087	30.3615
0.65	31.25
0.676087	32.1393
0.697826	33.0271
0.747826	35.0982
0.776087	35.9883
0.8	36.8768
0.847826	38.6539
0.876087	39.2508
0.9	40.7258
0.952174	42.2112
0.993478	43.6926
