Adsorption isotherm of Methane on IRMOF-1
DOI: 10.1002/anie.200502553
Adsorbate Methane: InChIKey VNWKTOKETHGBQD-UHFFFAOYSA-N
Temperature: 297 K
Tabular data in the source: 0
pressure (bar)	uptake (mmol/g)
0.0271212	0.0733346
0.0348101	0.19067
0.0658215	0.249338
0.127862	0.337339
0.162764	0.38134
0.201565	0.396007
0.232585	0.440008
0.267496	0.469342
0.306287	0.498675
0.341189	0.542676
0.37998	0.57201
0.422653	0.601344
0.442049	0.616011
0.48084	0.645345
0.507998	0.660012
0.546799	0.674678
0.581709	0.704012
0.62051	0.718679
0.65542	0.748013
0.694212	0.777347
0.72526	0.777347
0.72915	0.76268
0.752408	0.806681
0.791209	0.821348
0.82612	0.850682
0.86492	0.865348
0.903712	0.894682
0.938623	0.924016
0.977423	0.938683
1.01622	0.95335
1.05113	0.982684
1.08994	0.997351
1.12873	1.02668
1.14813	1.02668
1.15977	1.02668
1.17141	1.04135
1.21021	1.05602
1.24512	1.08535
1.28392	1.10002
1.32271	1.12935
1.35763	1.14402
1.39643	1.15869
1.43523	1.17335
1.51283	1.21735
1.6719	1.29069
1.69131	1.29069
1.7301	1.32002
1.76502	1.33469
1.80382	1.34936
1.84262	1.36402
1.88142	1.37869
1.91634	1.39336
1.95513	1.42269
1.99393	1.43736
2.02885	1.45203
2.06765	1.46669
2.08318	1.45203
2.10645	1.48136
2.14525	1.49603
2.18405	1.51069
2.21897	1.52536
2.25777	1.54003
2.29657	1.55469
2.33537	1.56936
2.37029	1.58403
2.4091	1.59869
2.4479	1.61336
2.4867	1.62803
2.51386	1.62803
2.55266	1.6427
2.59146	1.67203
2.59921	1.6867
