Adsorption isotherm of Ethane on IRMOF-1
DOI: 10.1002/anie.200502553
Adsorbate Ethane: InChIKey OTMSDBZUPAUEDD-UHFFFAOYSA-N
Temperature: 297 K
Tabular data in the source: 0
pressure (bar)	uptake (mmol/g)
0.0269934	0.148678
0.0307922	0.219104
0.0461974	0.320831
0.0693281	0.453858
0.080834	0.571235
0.107837	0.712088
0.123315	0.751213
0.138757	0.82164
0.158079	0.892066
0.173521	0.962492
0.196734	1.02509
0.231553	1.11899
0.258656	1.17377
0.285759	1.22855
0.312862	1.28332
0.355471	1.35375
0.386464	1.4007
0.417466	1.43983
0.448468	1.47895
0.483351	1.51808
0.502729	1.54155
0.537621	1.57285
0.572504	1.61198
0.607406	1.63545
0.646179	1.66675
0.681071	1.69806
0.715964	1.72936
0.750874	1.74501
0.785767	1.77631
0.824549	1.79978
0.859451	1.82326
0.898233	1.84673
0.933134	1.87021
0.971926	1.88586
1.00294	1.91716
1.03399	1.91716
1.06889	1.94063
1.10767	1.96411
1.13482	1.97976
1.16973	1.99541
1.20851	2.01889
1.2473	2.03454
1.28221	2.05019
1.31711	2.07366
1.35591	2.08931
1.39081	2.11279
1.4296	2.12844
1.46451	2.14409
1.49941	2.16756
1.52657	2.17539
1.56536	2.19104
1.60027	2.20669
1.63906	2.22234
1.67397	2.23799
1.70887	2.26147
1.74379	2.27712
1.78258	2.29277
1.82137	2.30842
1.85628	2.32407
1.89507	2.33972
1.92998	2.35537
1.96877	2.37102
1.99983	2.36319
2.03084	2.39449
2.06575	2.41014
2.10454	2.42579
2.13944	2.44927
2.17824	2.46492
2.21703	2.48057
2.25194	2.49622
2.29073	2.51187
2.32564	2.52752
2.36443	2.54317
2.39933	2.56665
2.43424	2.5823
2.47304	2.59795
2.50795	2.6136
2.54674	2.62925
2.58553	2.6449
2.60492	2.66055
