Adsorption isotherm of Argon on IRMOF-1
DOI: 10.1002/anie.200502553
Adsorbate Argon: InChIKey XKRFYHLGVUSROY-UHFFFAOYSA-N
Temperature: 87 K
Tabular data in the source: 0
pressure (bar)	uptake (cm3(STP)/g)
0.00115298	28.9666
0.00192163	53.1086
0.0030746	74.8288
0.0046119	98.9581
0.00653353	118.25
0.00807083	139.964
0.00960813	164.094
0.0111454	207.547
0.0115298	231.695
0.0119141	279.998
0.0122984	439.412
0.0126827	528.777
0.0134514	574.658
0.0146044	654.35
0.015373	678.492
0.0169103	700.206
0.0184476	721.92
0.0207536	741.205
0.0234438	760.485
0.0265184	772.512
0.0299774	782.117
0.0338206	789.3
0.0357422	794.099
0.0395855	796.452
0.0430444	801.226
0.0468877	805.994
0.0503466	805.937
0.0538055	810.711
0.0576488	815.479
0.0611077	817.838
0.0649509	820.19
0.0687942	822.543
0.0722531	827.317
0.0760964	832.085
0.0799396	834.437
0.0833985	836.796
0.0872418	839.148
0.091085	841.5
0.0949283	843.853
0.0983872	848.627
0.100693	851.005
0.104152	853.363
0.107995	855.716
0.111839	858.068
0.115682	860.421
0.119525	862.773
0.122984	865.132
0.126827	867.484
0.130671	867.421
0.134514	869.773
0.138357	872.126
0.141816	876.9
0.145659	879.252
0.149118	879.196
0.152961	881.548
0.156805	883.9
0.160648	886.253
0.164491	886.19
0.16795	888.548
0.171793	890.901
0.175637	893.253
0.17948	893.19
0.183323	893.127
0.187166	895.479
0.19101	895.416
0.194468	897.775
0.197159	900.146
0.200618	897.674
0.204461	900.026
0.208304	899.963
0.212147	902.316
0.215606	904.675
0.21945	904.611
0.223293	906.964
0.227136	906.901
0.230979	906.838
0.234823	909.19
0.238666	909.127
0.242509	909.064
0.245968	906.592
0.249811	911.36
0.253655	911.297
0.257498	911.233
0.261341	913.586
0.265184	913.523
