Adsorption isotherm of Isobutene on CuBTC
DOI: 10.1016/S0167-2991(08)80275-3
Adsorbate Isobutene: InChIKey VQTUBCCKSQIDNK-UHFFFAOYSA-N
Temperature: 303 K
Tabular data in the source: 0
pressure (bar)	uptake (coverage)
0.000437	0.164875
0.0007	0.358115
0.000933	0.42706
0.00119492	0.495034
0.00238932	0.614474
0.00375851	0.740711
0.00509856	0.803829
0.00690473	0.856266
0.0100218	0.889282
0.0143042	0.91453
0.0194313	0.926182
0.0247624	0.935893
