Adsorption isotherm of Isobutane on CuBTC
DOI: 10.1016/S0167-2991(08)80275-3
Adsorbate Isobutane: InChIKey NNPPMTNAJDCUHE-UHFFFAOYSA-N
Temperature: 318 K
Tabular data in the source: 0
pressure (bar)	uptake (coverage)
0.00115835	0.048111
0.00225079	0.0845256
0.00329953	0.123853
0.00430457	0.160268
0.00504743	0.209792
0.00653314	0.311752
0.00749449	0.428279
0.00867432	0.565198
0.00954827	0.635114
0.0104659	0.706486
0.0117768	0.757467
0.0144424	0.804077
0.0182441	0.840492
0.022439	0.868167
0.0270273	0.888559
