Adsorption isotherm of Isobutane on CuBTC
DOI: 10.1016/S0167-2991(08)80275-3
Adsorbate Isobutane: InChIKey NNPPMTNAJDCUHE-UHFFFAOYSA-N
Temperature: 313 K
Tabular data in the source: 0
pressure (bar)	uptake (coverage)
0.0020323	0.102005
0.00299364	0.147159
0.00456675	0.257859
0.00570289	0.386038
0.00648944	0.537523
0.00710121	0.622005
0.00806255	0.70503
0.00985415	0.773489
0.012913	0.830296
0.0171953	0.865254
0.0225701	0.894386
0.0283382	0.913321
