Adsorption isotherm of Isobutane on CuBTC
DOI: 10.1016/S0167-2991(08)80275-3
Adsorbate Isobutane: InChIKey NNPPMTNAJDCUHE-UHFFFAOYSA-N
Temperature: 303 K
Tabular data in the source: 0
pressure (bar)	uptake (coverage)
0.000634	0.0626768
0.00150793	0.122397
0.0021197	0.171921
0.00273146	0.243293
0.00343062	0.388951
0.00399869	0.557915
0.00430457	0.646766
0.00500373	0.739988
0.00675163	0.8201
0.00972306	0.878363
0.0141365	0.907495
0.019555	0.929344
0.0259785	0.945366
