Adsorption isotherm of Isobutane on CuBTC
DOI: 10.1016/S0167-2991(08)80275-3
Adsorbate Isobutane: InChIKey NNPPMTNAJDCUHE-UHFFFAOYSA-N
Temperature: 323 K
Tabular data in the source: 0
pressure (bar)	uptake (coverage)
0.00417348	0.123853
0.00736339	0.266598
0.00876171	0.388951
0.011034	0.588503
0.0138743	0.721052
0.0173264	0.782229
0.0222205	0.833209
0.0256289	0.855058
0.0286441	0.863797
