Adsorption isotherm of Isobutane on CuBTC
DOI: 10.1016/S0167-2991(08)80275-3
Adsorbate Isobutane: InChIKey NNPPMTNAJDCUHE-UHFFFAOYSA-N
Temperature: 308 K
Tabular data in the source: 0
pressure (bar)	uptake (coverage)
0.00172642	0.115114
0.00264407	0.166094
0.00334322	0.222901
0.00426087	0.361276
0.00513482	0.538979
0.0055718	0.633657
0.00644575	0.721052
0.00810625	0.792425
0.011602	0.856514
0.0163214	0.890016
0.0222205	0.914778
0.0286441	0.932257
