Adsorption isotherm of Isobutene on CuBTC
DOI: 10.1016/S0167-2991(08)80275-3
Adsorbate Isobutene: InChIKey VQTUBCCKSQIDNK-UHFFFAOYSA-N
Temperature: 313 K
Tabular data in the source: 0
pressure (bar)	uptake (coverage)
0.00104927	0.348405
0.00125319	0.411523
0.00192321	0.474642
0.00262237	0.534847
0.00358372	0.592139
0.00562293	0.699926
0.00696299	0.75819
0.00862349	0.810627
0.0113036	0.85044
0.0148285	0.880543
0.0194313	0.900935
0.0245585	0.919385
