Adsorption isotherm of Isobutene on CuBTC
DOI: 10.1016/S0167-2991(08)80275-3
Adsorbate Isobutene: InChIKey VQTUBCCKSQIDNK-UHFFFAOYSA-N
Temperature: 308 K
Tabular data in the source: 0
pressure (bar)	uptake (coverage)
0.000408	0.19692
0.000874	0.354231
0.00157363	0.485323
0.00227279	0.545529
0.00291369	0.602821
0.00469072	0.728087
0.00588512	0.779553
0.00772041	0.827135
0.0107501	0.876658
0.0150616	0.899964
0.020014	0.915501
0.0254325	0.928124
