Adsorption isotherm of Isobutene on CuBTC
DOI: 10.1016/S0167-2991(08)80275-3
Adsorbate Isobutene: InChIKey VQTUBCCKSQIDNK-UHFFFAOYSA-N
Temperature: 323 K
Tabular data in the source: 0
pressure (bar)	uptake (coverage)
0.00110753	0.274604
0.00160277	0.350347
0.00206887	0.401813
0.00410809	0.522223
0.00518596	0.573689
0.00661341	0.625155
0.0102549	0.730029
0.0131389	0.780524
0.019577	0.8417
0.0242963	0.864035
