Adsorption isotherm of Isobutene on CuBTC
DOI: 10.1016/S0167-2991(08)80275-3
Adsorbate Isobutene: InChIKey VQTUBCCKSQIDNK-UHFFFAOYSA-N
Temperature: 318 K
Tabular data in the source: 0
pressure (bar)	uptake (coverage)
0.000292	0.111467
0.000933	0.27946
0.00128232	0.337723
0.00166103	0.401813
0.00238932	0.460076
0.00308848	0.520281
0.00431201	0.57466
0.00541901	0.628068
0.00658428	0.680505
0.00812826	0.731971
0.0100218	0.781495
0.0123815	0.825193
0.0159647	0.857237
0.0203053	0.879572
0.0251994	0.898993
