Adsorption isotherm of Benzene, Cadmium(II) Ion, Water on commercial powdered activated carbon
DOI: 10.1016/j.catena.2016.06.029
Article source: Figures 4 and 5
Adsorbate Benzene: InChIKey UHOVQNZJYSORNB-UHFFFAOYSA-N
Adsorbate Cadmium(II) Ion: InChIKey WLZRMCYVCSSEQC-UHFFFAOYSA-N
Adsorbate Water: InChIKey XLYOFNOQVPJJNP-UHFFFAOYSA-N
Kind: experiment
Temperature: 298 K
Tabular data in the source: 0
pressure (bar)	Benzene fraction	Benzene uptake (mg/g)	Cadmium(II) Ion fraction	Cadmium(II) Ion uptake (mg/g)	Water fraction	Water uptake (mg/g)	total uptake (mg/g)
1.01325	0.76	0.75	0.7	0.244			
1.01325	0.95	47.41	2.95	6.394			
1.01325	4.47	92.35	32.11	10.299			
1.01325	23.21	175.1	61.55	17.035			
1.01325	45.12	255.59	148.04	30.801			
1.01325	83.12	316.04	251.73	25.578			
1.01325	124.45	374	376.88	29.922			
1.01325	221.6	377.75	469.92	26.993			
