Adsorption isotherm of Benzene, Cadmium(II) Ion, Water on alginate beads
DOI: 10.1016/j.catena.2016.06.029
Article source: Figures 4 and 5
Adsorbate Benzene: InChIKey UHOVQNZJYSORNB-UHFFFAOYSA-N
Adsorbate Cadmium(II) Ion: InChIKey WLZRMCYVCSSEQC-UHFFFAOYSA-N
Adsorbate Water: InChIKey XLYOFNOQVPJJNP-UHFFFAOYSA-N
Kind: experiment
Temperature: 298 K
Tabular data in the source: 0
pressure (bar)	Benzene fraction	Benzene uptake (mg/g)	Cadmium(II) Ion fraction	Cadmium(II) Ion uptake (mg/g)	Water fraction	Water uptake (mg/g)	total uptake (mg/g)
1.01325	0.91	0.54	0.7	0.244			
1.01325	50.71	2.91	1.14	9.079			
1.01325	94.61	5.28	4.84	39.782			
1.01325	175.74	24.04	15.12	65.555			
1.01325	231.3	17.57	63.7	116.075			
1.01325	297.45	8.41	134.37	141.653			
1.01325	344.53	11.97	242.15	147.852			
1.01325	392.06	14.34	309.42	152.001			
1.01325	507.72	0.75	389.87	158.152			
