Adsorption isotherm of Cadmium(II) Ion, Water on powdered activated carbon impregnated alginate beads
DOI: 10.1016/j.catena.2016.06.029
Article source: Figure 2
Adsorbate Cadmium(II) Ion: InChIKey WLZRMCYVCSSEQC-UHFFFAOYSA-N
Adsorbate Water: InChIKey XLYOFNOQVPJJNP-UHFFFAOYSA-N
Kind: experiment
Temperature: 296 K
Tabular data in the source: 0
pressure (bar)	Cadmium(II) Ion fraction	Cadmium(II) Ion uptake (mg/g)	Water fraction	Water uptake (mg/g)	total uptake (mg/g)
1.01325	1.09	0.459			
1.01325	2.32	12.025			
1.01325	16.07	40.559			
1.01325	57.8	57.02			
1.01325	158.22	79.856			
1.01325	254.56	85.726			
1.01325	483.23	89.723			
