Adsorption isotherm of Cadmium(II) Ion, Water on alginate beads
DOI: 10.1016/j.catena.2016.06.029
Article source: Figure 2
Adsorbate Cadmium(II) Ion: InChIKey WLZRMCYVCSSEQC-UHFFFAOYSA-N
Adsorbate Water: InChIKey XLYOFNOQVPJJNP-UHFFFAOYSA-N
Kind: experiment
Temperature: 296 K
Tabular data in the source: 0
pressure (bar)	Cadmium(II) Ion fraction	Cadmium(II) Ion uptake (mg/g)	Water fraction	Water uptake (mg/g)	total uptake (mg/g)
1.01325	1.09	0.459			
1.01325	1.23	9.324			
1.01325	4.66	45.551			
1.01325	22.22	78.212			
1.01325	80.4	107.668			
1.01325	152.29	126.68			
1.01325	336.81	141.933			
