Adsorption isotherm of Benzene, Cadmium(II) Ion, Water on alginate beads
DOI: 10.1016/j.catena.2016.06.029
Article source: Figures 4 and 5
Adsorbate Benzene: InChIKey UHOVQNZJYSORNB-UHFFFAOYSA-N
Adsorbate Cadmium(II) Ion: InChIKey WLZRMCYVCSSEQC-UHFFFAOYSA-N
Adsorbate Water: InChIKey XLYOFNOQVPJJNP-UHFFFAOYSA-N
Kind: experiment
Temperature: 298 K
Tabular data in the source: 0
pressure (bar)	Benzene fraction	Benzene uptake (mg/g)	Cadmium(II) Ion fraction	Cadmium(II) Ion uptake (mg/g)	Water fraction	Water uptake (mg/g)	total uptake (mg/g)
1.01325	0.7	0.244	0.7	0.244			
1.01325	2.95	6.394	1.14	9.079			
1.01325	32.11	10.299	4.84	39.782			
1.01325	61.55	17.035	15.12	65.555			
1.01325	148.04	30.801	63.7	116.075			
1.01325	251.73	25.578	134.37	141.653			
1.01325	321.94	27.432	242.15	147.852			
1.01325	376.88	29.922	309.42	152.001			
1.01325	469.92	26.993	389.87	158.152			
