Adsorption isotherm of Benzene, Water on commercial powdered activated carbon
DOI: 10.1016/j.catena.2016.06.029
Article source: Figure 2
Adsorbate Benzene: InChIKey UHOVQNZJYSORNB-UHFFFAOYSA-N
Adsorbate Water: InChIKey XLYOFNOQVPJJNP-UHFFFAOYSA-N
Kind: experiment
Temperature: 296 K
Tabular data in the source: 0
pressure (bar)	Benzene fraction	Benzene uptake (mg/g)	Water fraction	Water uptake (mg/g)	total uptake (mg/g)
1.01325	1.05	47.63			
1.01325	5.08	94.51			
1.01325	18.24	179.92			
1.01325	47.38	250.61			
1.01325	65.02	333.1			
1.01325	139.16	357.02			
1.01325	242.9	355.18			
