Adsorption isotherm of Cadmium(II) Ion, Water on commercial powdered activated carbon
DOI: 10.1016/j.catena.2016.06.029
Article source: Figure 2
Adsorbate Cadmium(II) Ion: InChIKey WLZRMCYVCSSEQC-UHFFFAOYSA-N
Adsorbate Water: InChIKey XLYOFNOQVPJJNP-UHFFFAOYSA-N
Kind: experiment
Temperature: 296 K
Tabular data in the source: 0
pressure (bar)	Cadmium(II) Ion fraction	Cadmium(II) Ion uptake (mg/g)	Water fraction	Water uptake (mg/g)	total uptake (mg/g)
1.01325	1.09	0.459			
1.01325	2.86	7.286			
1.01325	34.12	15.493			
1.01325	81.4	18.147			
1.01325	164.29	22.741			
1.01325	253.28	24.992			
1.01325	369.31	18.074			
1.01325	460.61	17.778			
