Adsorption isotherm of Benzene, Water on alginate beads
DOI: 10.1016/j.catena.2016.06.029
Article source: Figure 2
Adsorbate Benzene: InChIKey UHOVQNZJYSORNB-UHFFFAOYSA-N
Adsorbate Water: InChIKey XLYOFNOQVPJJNP-UHFFFAOYSA-N
Kind: experiment
Temperature: 296 K
Tabular data in the source: 0
pressure (bar)	Benzene fraction	Benzene uptake (mg/g)	Water fraction	Water uptake (mg/g)	total uptake (mg/g)
1.01325	1.05	0.97			
1.01325	45.29	4.22			
1.01325	100.15	13.75			
1.01325	194.62	14.61			
1.01325	401.49	10.5			
1.01325	505.98	12.99			
