Adsorption isotherm of Benzene, Cadmium(II) Ion, Water on powdered activated carbon impregnated alginate beads
DOI: 10.1016/j.catena.2016.06.029
Article source: Figures 4 and 5
Adsorbate Benzene: InChIKey UHOVQNZJYSORNB-UHFFFAOYSA-N
Adsorbate Cadmium(II) Ion: InChIKey WLZRMCYVCSSEQC-UHFFFAOYSA-N
Adsorbate Water: InChIKey XLYOFNOQVPJJNP-UHFFFAOYSA-N
Kind: experiment
Temperature: 298 K
Tabular data in the source: 0
pressure (bar)	Benzene fraction	Benzene uptake (mg/g)	Cadmium(II) Ion fraction	Cadmium(II) Ion uptake (mg/g)	Water fraction	Water uptake (mg/g)	total uptake (mg/g)
1.01325	0.76	0.75	0.98	0.39			
1.01325	7.32	42.78	12.55	31.628			
1.01325	37.84	61.95	32.69	47.83			
1.01325	104.96	94.8	101.28	78.763			
1.01325	192.86	106.53	202.74	84.387			
1.01325	253.29	130.55	304.69	84.19			
1.01325	338.3	150.25	376.28	84.811			
1.01325	457	145.38	462.86	84.843			
