Adsorption isotherm of Benzene, Water on powdered activated carbon impregnated alginate beads
DOI: 10.1016/j.catena.2016.06.029
Article source: Figure 2
Adsorbate Benzene: InChIKey UHOVQNZJYSORNB-UHFFFAOYSA-N
Adsorbate Water: InChIKey XLYOFNOQVPJJNP-UHFFFAOYSA-N
Kind: experiment
Temperature: 296 K
Tabular data in the source: 0
pressure (bar)	Benzene fraction	Benzene uptake (mg/g)	Water fraction	Water uptake (mg/g)	total uptake (mg/g)
1.01325	1.05	0.97			
1.01325	11.36	38.65			
1.01325	38.12	62.14			
1.01325	96.26	103.49			
1.01325	256.35	137.37			
1.01325	356.8	140.51			
1.01325	450.97	149.39			
