Adsorption isotherm of Nitrogen on SUMOF-5
DOI: 10.1524/zkri.2013.1629
Adsorbate Nitrogen: InChIKey IJGRMHOSHXDMSA-UHFFFAOYSA-N
Temperature: 77 K
Tabular data in the source: 0
pressure (bar)	uptake (mmol/g)
0.00420256	0.0212843
0.00589089	9.52128
0.00757923	11.438
0.00926756	12.438
0.0160209	13.3546
0.0244626	14.3963
0.0329042	14.8963
0.0497876	15.2296
0.0734242	15.563
0.107191	16.0213
0.194984	16.563
0.279401	16.9796
0.365506	17.2713
0.439793	17.5213
0.483689	17.6463
0.547846	18.063
0.620444	18.3963
0.686289	18.813
0.762264	19.5213
0.821356	20.6046
0.861876	21.563
0.890578	22.4796
0.946293	23.563
0.981748	23.9796
