Adsorption isotherm of Methane on PCN-121
DOI: 10.1039/C1cc16261f
Adsorbate Methane: InChIKey VNWKTOKETHGBQD-UHFFFAOYSA-N
Temperature: 195 K
Tabular data in the source: 0
pressure (bar)	uptake (cm3(STP)/g)
0.0272608	8.98876
0.0613368	20.9738
0.0885976	23.97
0.119266	26.9663
0.143119	32.9588
0.166972	37.4532
0.201048	43.4457
0.235124	46.4419
0.2692	52.4345
0.293054	55.4307
0.323722	58.427
0.357798	62.9213
0.378244	64.4195
0.402097	67.4157
0.43958	71.9101
0.473656	74.9064
0.507732	77.9026
0.534993	82.397
0.572477	82.397
0.613368	88.3895
0.654259	89.8876
0.698558	92.8839
0.732634	95.8801
0.770118	100.375
0.804194	103.371
0.834862	104.869
0.868938	104.869
0.913237	107.865
0.974574	112.36
1.01887	113.858
1.05295	116.854
