Adsorption isotherm of Hydrogen on PCN-121
DOI: 10.1039/C1cc16261f
Adsorbate Hydrogen: InChIKey UFHFLCQGNIYNRP-UHFFFAOYSA-N
Temperature: 87 K
Tabular data in the source: 0
pressure (bar)	uptake (wt%)
0.00692584	0.0280364
0.0311663	0.0841636
0.0554067	0.134691
0.0761842	0.174
0.100425	0.213327
0.124665	0.258255
0.14198	0.280745
0.162757	0.308855
0.183535	0.336964
0.207775	0.359491
0.228553	0.3876
0.24933	0.410109
0.270108	0.432618
0.294348	0.455145
0.311663	0.477636
0.335903	0.500164
0.377458	0.533982
0.419013	0.5734
0.464031	0.612836
0.505586	0.641055
0.55753	0.680527
0.595622	0.703127
0.637177	0.736945
0.682195	0.770782
0.720287	0.793382
0.793008	0.838564
0.848415	0.878055
0.88997	0.900673
0.934988	0.923309
0.983469	0.951564
1.02156	0.974164
1.0458	0.985491
1.06658	0.9912
