Adsorption isotherm of Carbon Dioxide on PCN-121
DOI: 10.1039/C1cc16261f
Adsorbate Carbon Dioxide: InChIKey CURLTUGMZLYLDI-UHFFFAOYSA-N
Temperature: 295 K
Tabular data in the source: 0
pressure (bar)	uptake (cm3(STP)/g)
0.051114	4.49438
0.115858	7.49064
0.187418	8.98876
0.262385	13.4831
0.316907	14.9813
0.35439	16.4794
0.395282	17.9775
0.43958	19.4757
0.521363	19.4757
0.579292	23.97
0.613368	25.4682
0.657667	23.97
0.708781	26.9663
0.742857	28.4644
0.797379	29.9625
0.845085	32.9588
0.889384	32.9588
0.933683	35.9551
0.988204	35.9551
1.01887	38.9513
1.06658	40.4494
1.10065	41.9476
1.12792	40.4494
1.17903	43.4457
