Adsorption isotherm of Nitrogen on PCN-121
DOI: 10.1039/C1cc16261f
Adsorbate Nitrogen: InChIKey IJGRMHOSHXDMSA-UHFFFAOYSA-N
Temperature: 77 K
Tabular data in the source: 0
pressure (bar)	uptake (cm3(STP)/g)
0.00609103	0.00609103
0.00913655	358.647
0.0243641	403.759
0.0365462	412.782
0.0730924	428.571
0.130957	446.617
0.185777	455.639
0.222323	462.406
0.261914	466.917
0.310643	475.94
0.383735	482.707
0.432463	489.474
0.465964	493.985
0.50251	498.496
0.526874	505.263
0.55733	509.774
0.587785	518.797
0.609103	525.564
0.648695	536.842
0.685241	548.12
0.721788	550.376
0.755288	550.376
0.782698	552.632
0.840563	554.887
0.880154	557.143
0.913655	559.398
0.934974	561.654
