Adsorption isotherm of Oxygen on PCN-121
DOI: 10.1039/C1cc16261f
Adsorbate Oxygen: InChIKey MYMOFIZGZYHOMD-UHFFFAOYSA-N
Temperature: 77 K
Tabular data in the source: 0
pressure (bar)	uptake (cm3(STP)/g)
0.00110774	400.983
0.00112188	426.536
0.00201634	442.26
0.00424813	473.71
0.00957897	503.194
0.0144561	513.022
0.0180034	520.885
0.0259806	530.713
0.0295269	536.609
0.0330721	540.541
0.0414922	550.369
0.0450363	552.334
0.0481397	558.231
0.0521267	560.197
0.0601017	566.093
0.0680778	573.956
0.0782716	587.715
0.0862477	595.577
0.0933392	605.405
0.101761	619.165
0.109301	638.821
0.116842	660.442
0.124379	674.201
0.131468	680.098
0.138555	682.064
0.146527	682.064
0.154058	685.995
0.161587	685.995
0.16513	685.995
0.169116	685.995
0.173104	689.926
0.177533	689.926
0.185066	697.789
