Adsorption isotherm of Hydrogen on PCN-121
DOI: 10.1039/C1cc16261f
Adsorbate Hydrogen: InChIKey UFHFLCQGNIYNRP-UHFFFAOYSA-N
Temperature: 77 K
Tabular data in the source: 0
pressure (bar)	uptake (wt%)
0.0103888	0.0896545
0.0277033	0.184945
0.041555	0.252218
0.0554067	0.302691
0.0727213	0.353182
0.0900359	0.392473
0.103888	0.431745
0.114276	0.4654
0.131591	0.493491
0.148906	0.521582
0.16622	0.549673
0.180072	0.577745
0.193923	0.605818
0.207775	0.628291
0.22509	0.650782
0.238941	0.678855
0.256256	0.695745
0.270108	0.718218
0.287422	0.740709
0.304737	0.7576
0.322051	0.780091
0.335903	0.796964
0.349755	0.819436
0.367069	0.836327
0.380921	0.8476
0.394773	0.870073
0.412087	0.886964
0.422476	0.898218
0.439791	0.920709
0.470957	0.948873
0.505586	0.982655
0.536752	1.00522
0.560993	1.03335
0.592159	1.06711
0.623325	1.08967
0.657955	1.11785
0.692584	1.15164
0.730676	1.18544
0.775694	1.21927
0.799934	1.2306
0.820712	1.24751
0.855341	1.27009
0.900359	1.29833
0.945377	1.33776
0.993858	1.36042
1.02849	1.383
1.0735	1.41124
