Adsorption isotherm of Carbon Dioxide on PCN-121
DOI: 10.1039/C1cc16261f
Adsorbate Carbon Dioxide: InChIKey CURLTUGMZLYLDI-UHFFFAOYSA-N
Temperature: 195 K
Tabular data in the source: 0
pressure (bar)	uptake (cm3(STP)/g)
0.0068152	26.9663
0.0136304	41.9476
0.0374836	74.9064
0.0545216	95.8801
0.0749672	124.345
0.08519	146.816
0.0954128	167.79
0.105636	197.753
0.109043	223.221
0.115858	251.685
0.129489	274.157
0.146527	293.633
0.177195	308.614
0.201048	320.599
0.235124	329.588
0.258978	335.581
0.282831	341.573
0.306684	344.569
0.347575	352.06
0.368021	355.056
0.402097	359.551
0.442988	364.045
0.494102	371.536
0.548624	376.03
0.592922	380.524
0.644036	383.521
0.688335	388.015
0.742857	392.509
0.814417	398.502
0.889384	404.494
0.957536	410.487
1.00524	414.981
1.04613	417.978
1.08021	420.974
1.12792	423.97
1.18584	428.464
