Adsorption isotherm of Argon on PCN-121
DOI: 10.1039/C1cc16261f
Adsorbate Argon: InChIKey XKRFYHLGVUSROY-UHFFFAOYSA-N
Temperature: 87 K
Tabular data in the source: 0
pressure (bar)	uptake (cm3(STP)/g)
0.00457487	0.00457487
0.00686231	353.867
0.00914974	375.138
0.0182995	417.68
0.0274492	431.215
0.0480362	452.486
0.0640482	462.155
0.0846351	471.823
0.105222	477.624
0.121234	485.359
0.141821	489.227
0.160121	495.028
0.17842	500.829
0.196719	502.762
0.217306	506.63
0.235606	508.564
0.256193	512.431
0.295079	516.298
0.313379	520.166
0.331678	524.033
0.345403	527.901
0.368277	531.768
0.386577	535.635
0.425463	537.569
0.443763	541.436
0.480362	549.171
0.500948	553.039
0.519248	554.972
0.539835	562.707
0.576434	570.442
0.592446	578.177
0.613033	585.912
0.631332	595.58
0.649632	605.249
0.672506	614.917
0.688518	620.718
0.706818	626.519
0.747992	632.32
0.764004	634.254
0.784591	632.32
0.80289	632.32
0.818902	634.254
0.839489	636.188
0.878375	636.188
0.914974	638.122
0.933274	640.055
