Adsorption isotherm of Argon on PCN-121
DOI: 10.1039/C1cc16261f
Adsorbate Argon: InChIKey XKRFYHLGVUSROY-UHFFFAOYSA-N
Temperature: 77 K
Tabular data in the source: 0
pressure (bar)	uptake (cm3(STP)/g)
0.000641026	390.608
0.00192308	413.812
0.00448718	444.751
0.0192308	483.425
0.0294872	496.961
0.0346154	500.829
0.0403846	506.63
0.0461538	512.431
0.05	514.365
0.0557692	518.232
0.0602564	518.232
0.0711538	525.967
0.075641	527.901
0.0820513	531.768
0.0871795	533.702
0.0923077	537.569
0.0967949	539.503
0.101923	543.37
0.107692	547.238
0.112821	551.105
0.117308	553.039
0.122436	556.906
0.128846	558.84
0.133333	560.773
0.138462	564.641
0.144231	570.442
0.148718	572.376
0.153846	576.243
0.158974	583.978
0.163462	587.845
0.16859	593.646
0.174359	601.381
0.180769	609.116
0.185897	618.785
0.191026	628.453
0.196795	638.122
0.201923	641.989
0.207051	641.989
0.212179	645.856
0.216026	645.856
0.228205	649.724
0.238462	649.724
0.253205	651.657
0.258333	653.591
