Adsorption isotherm of Nitrogen on PCN-121
DOI: 10.1039/C1cc16261f
Adsorbate Nitrogen: InChIKey IJGRMHOSHXDMSA-UHFFFAOYSA-N
Temperature: 77 K
Tabular data in the source: 0
pressure (bar)	uptake (cm3(STP)/g)
0.00609103	9.02256
0.0182731	22.5564
0.0365462	27.0677
0.0700469	31.5789
0.109639	33.8346
0.14923	38.3459
0.194913	40.6015
0.228414	42.8571
0.268006	45.1128
0.322825	47.3684
0.368508	51.8797
0.402008	54.1353
0.435509	56.391
0.462919	60.9023
0.50251	63.1579
0.532966	72.1805
0.566466	76.6917
0.59083	83.4586
0.61824	94.7368
0.648695	103.759
0.673059	115.038
0.694378	124.06
0.727879	128.571
0.761379	128.571
0.800971	128.571
0.85579	130.827
0.898428	133.083
0.934974	137.594
