Adsorption isotherm of Oxygen on PCN-121
DOI: 10.1039/C1cc16261f
Adsorbate Oxygen: InChIKey MYMOFIZGZYHOMD-UHFFFAOYSA-N
Temperature: 87 K
Tabular data in the source: 0
pressure (bar)	uptake (cm3(STP)/g)
0.00384077	312.531
0.0053526	265.356
0.00553418	355.774
0.00720785	389.189
0.013721	432.432
0.0234038	454.054
0.0346853	471.744
0.045951	481.572
0.063647	493.366
0.0765153	501.229
0.09581	509.091
0.107068	514.988
0.118318	516.953
0.134395	522.85
0.148862	526.781
0.160112	528.747
0.176182	530.713
0.189042	534.644
0.201903	538.575
0.21798	544.472
0.230833	544.472
0.26941	554.3
0.298344	562.162
0.327274	568.059
0.356216	579.853
0.381929	583.784
0.410871	595.577
0.435005	613.268
0.44948	621.13
0.463959	630.958
0.478442	642.752
0.491306	648.649
0.505777	654.545
0.518638	658.477
0.53149	658.477
0.537917	658.477
0.562015	658.477
0.573261	658.477
0.586122	662.408
0.59897	660.442
0.61504	662.408
0.642351	662.408
0.67288	664.373
0.682524	666.339
