Adsorption isotherm of Methane on PCN-121
DOI: 10.1039/C1cc16261f
Adsorbate Methane: InChIKey VNWKTOKETHGBQD-UHFFFAOYSA-N
Temperature: 273 K
Tabular data in the source: 0
pressure (bar)	uptake (cm3(STP)/g)
0.275137	7.5188
0.319294	7.5188
0.349865	6.01504
0.377039	7.5188
0.414403	7.5188
0.448371	7.5188
0.492528	7.5188
0.536686	9.02256
0.591034	10.5263
0.641985	10.5263
0.68954	10.5263
0.740491	13.5338
0.777855	12.0301
0.82541	12.0301
0.876361	15.0376
0.947693	12.0301
1.01563	13.5338
1.10055	15.0376
1.14131	15.0376
1.17188	15.0376
1.20245	16.5414
