Adsorption isotherm of Methane on PCN-121
DOI: 10.1039/C1cc16261f
Adsorbate Methane: InChIKey VNWKTOKETHGBQD-UHFFFAOYSA-N
Temperature: 295 K
Tabular data in the source: 0
pressure (bar)	uptake (cm3(STP)/g)
0.0883155	3.00752
0.142663	4.51128
0.176631	1.50376
0.203805	3.00752
0.237772	4.51128
0.27174	6.01504
0.288724	4.51128
0.315898	6.01504
0.346468	6.01504
0.411007	4.51128
0.438181	4.51128
0.502719	4.51128
0.560463	6.01504
0.621605	7.5188
0.652176	6.01504
0.716714	9.02256
0.777855	6.01504
0.808426	9.02256
0.866171	9.02256
0.923916	9.02256
0.988454	10.5263
1.02242	9.02256
1.05299	9.02256
1.08017	10.5263
1.11074	9.02256
1.1447	9.02256
1.17527	9.02256
1.19905	9.02256
