Adsorption isotherm of Nitrogen on PCN-121
DOI: 10.1039/C1cc16261f
Adsorbate Nitrogen: InChIKey IJGRMHOSHXDMSA-UHFFFAOYSA-N
Temperature: 77 K
Tabular data in the source: 0
pressure (bar)	uptake (cm3(STP)/g)
0.00913655	0.00913655
0.0121821	503.008
0.0243641	534.586
0.0365462	550.376
0.0578648	563.91
0.0913655	575.188
0.127912	581.955
0.164458	584.211
0.20405	586.466
0.280188	590.977
0.35328	593.233
0.41419	597.744
0.472055	600
0.52992	600
0.612149	600
0.721788	602.256
0.831426	602.256
0.871018	602.256
0.913655	600
0.959338	600
