Adsorption isotherm of Carbon Dioxide on PCN-121
DOI: 10.1039/C1cc16261f
Adsorbate Carbon Dioxide: InChIKey CURLTUGMZLYLDI-UHFFFAOYSA-N
Temperature: 273 K
Tabular data in the source: 0
pressure (bar)	uptake (cm3(STP)/g)
0.0579292	8.98876
0.197641	11.985
0.296461	16.4794
0.350983	25.4682
0.385059	23.97
0.446396	28.4644
0.487287	32.9588
0.517955	35.9551
0.545216	35.9551
0.616776	38.9513
0.674705	41.9476
0.732634	46.4419
0.780341	49.4382
0.831455	55.4307
0.909829	58.427
0.967759	61.4232
1.01887	64.4195
1.08021	65.9176
1.14836	71.9101
1.20288	74.9064
