Adsorption isotherm of Krypton on C60 powder
DOI: 10.1016/s0008-6223(98)00178-x
Article source: Figure 3a
Adsorbate Krypton: InChIKey DNNSSWSSYDEUBZ-UHFFFAOYSA-N
Kind: experiment
Temperature: 77 K
Tabular data in the source: 0
pressure (bar)	uptake (coverage)
0	0.141732
3e-05	0.464567
7.1e-05	0.566929
9.5e-05	0.645669
0.00013	0.732283
0.000183	0.771654
0.000454	1.03937
0.000624	1.13386
0.000812	1.25197
0.001241	1.55906
0.001593	1.83465
