Adsorption isotherm of Krypton on Diamond
DOI: 10.1016/s0008-6223(98)00178-x
Article source: Figure 2a
Adsorbate Krypton: InChIKey DNNSSWSSYDEUBZ-UHFFFAOYSA-N
Kind: experiment
Temperature: 77 K
Tabular data in the source: 0
pressure (bar)	uptake (coverage)
6e-06	0.002645
1.2e-05	0.352439
1.8e-05	0.266256
2.9e-05	0.563865
0.00024	1.01743
0.000481	1.1419
