Adsorption isotherm of Krypton on Graphitized Carbon Black
DOI: 10.1016/s0008-6223(98)00178-x
Article source: Figure 1a
Adsorbate Krypton: InChIKey DNNSSWSSYDEUBZ-UHFFFAOYSA-N
Kind: experiment
Temperature: 77 K
Tabular data in the source: 0
pressure (bar)	uptake (coverage)
5e-06	0.228947
5e-06	0.284211
5e-06	0.355263
5e-06	0.426316
6e-06	0.039474
6e-06	0.086842
6e-06	0.118421
6e-06	0.165789
1e-05	0.671053
1.1e-05	0.505263
1.1e-05	0.6
1.6e-05	0.757895
2.2e-05	0.828947
7.4e-05	0.868421
0.000139	0.9
0.000203	0.923684
0.000279	0.931579
0.000361	0.947368
0.000454	0.955263
0.000548	0.971053
0.000636	0.978947
0.000712	0.994737
0.000764	1.00263
0.000835	1.01053
0.000893	1.02632
0.000975	1.03421
0.001016	1.04211
0.001039	1.08947
0.001056	1.17632
0.001074	1.29474
0.001079	1.37368
0.001097	1.46053
0.001108	1.53947
0.001114	1.65
0.001131	1.76053
0.001143	1.82368
0.001184	1.91053
0.001236	1.96579
0.001283	1.98158
0.001377	2.00526
0.00147	2.02105
0.001587	2.04474
0.001681	2.06842
0.001757	2.1
0.001838	2.13158
0.001909	2.16316
0.001961	2.19474
0.002008	2.25
0.002019	2.31316
0.002037	2.37632
0.002048	2.43947
0.00206	2.52632
0.002072	2.58158
0.002083	2.64474
0.002106	2.72368
0.002136	2.79474
0.002153	2.88158
0.002188	2.96842
