Adsorption isotherm of Krypton on C60 powder
DOI: 10.1016/s0008-6223(98)00178-x
Article source: Figure 3a
Adsorbate Krypton: InChIKey DNNSSWSSYDEUBZ-UHFFFAOYSA-N
Kind: experiment
Temperature: 77 K
Tabular data in the source: 0
pressure (bar)	uptake (coverage)
0	0.102362
0	0.181102
1e-06	0.267717
7e-06	0.346457
1.3e-05	0.401575
1.8e-05	0.417323
3e-05	0.448819
4.2e-05	0.527559
6.6e-05	0.590551
8.9e-05	0.622047
0.000101	0.661417
0.00013	0.724409
0.000177	0.771654
0.000201	0.811024
0.000307	0.913386
0.000442	0.992126
0.000665	1.12598
0.000876	1.28346
0.001164	1.55118
0.001511	1.82677
