Adsorption isotherm of Krypton on C60 Sublimed
DOI: 10.1016/s0008-6223(98)00178-x
Article source: Figure 4
Adsorbate Krypton: InChIKey DNNSSWSSYDEUBZ-UHFFFAOYSA-N
Kind: experiment
Temperature: 77 K
Tabular data in the source: 0
pressure (bar)	uptake (coverage)
2.6e-05	0.366142
7e-05	0.570866
0.000104	0.622047
0.000156	0.748031
0.000195	0.771654
0.000211	0.795276
0.000256	0.870079
0.0003	0.929134
0.0004	0.972441
0.00057	1.11417
