Adsorption isotherm of Krypton on C60 powder
DOI: 10.1016/s0008-6223(98)00178-x
Article source: Figure 3a
Adsorbate Krypton: InChIKey DNNSSWSSYDEUBZ-UHFFFAOYSA-N
Kind: experiment
Temperature: 77 K
Tabular data in the source: 0
pressure (bar)	uptake (coverage)
1e-06	0.291339
6.6e-05	0.566929
0.000119	0.685039
0.000154	0.724409
0.000213	0.818898
0.000248	0.889764
0.000289	0.92126
0.000324	0.937008
0.000371	0.968504
0.000436	1.01575
0.000495	1.07087
0.000577	1.09449
0.000653	1.17323
0.000718	1.20472
0.000841	1.31496
0.000982	1.4252
0.001082	1.47244
0.001217	1.58268
0.001294	1.62992
0.001399	1.71654
0.001517	1.80315
