Adsorption isotherm of Krypton on Diamond
DOI: 10.1016/s0008-6223(98)00178-x
Article source: Figure 2a
Adsorbate Krypton: InChIKey DNNSSWSSYDEUBZ-UHFFFAOYSA-N
Kind: experiment
Temperature: 77 K
Tabular data in the source: 0
pressure (bar)	uptake (coverage)
1.2e-05	0.125285
1.8e-05	0.430747
4.1e-05	0.665651
6.5e-05	0.775229
0.000293	1.05641
0.000622	1.21974
0.000897	1.34409
0.001097	1.42955
0.001273	1.53858
0.001472	1.67104
0.001648	1.82708
0.001824	2.01444
0.001977	2.31155
