Adsorption isotherm of Krypton on C60
DOI: 10.1016/s0008-6223(98)00178-x
Article source: Figure 4
Adsorbate Krypton: InChIKey DNNSSWSSYDEUBZ-UHFFFAOYSA-N
Kind: experiment
Temperature: 77 K
Tabular data in the source: 0
pressure (bar)	uptake (coverage)
2e-06	0.094488
4e-06	0.185039
5e-06	0.251969
9e-06	0.34252
1.2e-05	0.377953
2.1e-05	0.413386
3e-05	0.452756
3.7e-05	0.464567
4.6e-05	0.523622
5.1e-05	0.53937
7.2e-05	0.562992
7.5e-05	0.594488
8.6e-05	0.622047
9.8e-05	0.65748
0.000107	0.65748
0.000126	0.700787
0.00013	0.712598
0.000135	0.724409
0.000158	0.73622
0.000174	0.759843
0.000184	0.775591
0.000205	0.807087
0.000212	0.826772
0.000249	0.885827
0.000286	0.92126
0.000304	0.909449
0.000314	0.933071
0.000321	0.937008
0.00037	0.968504
0.000432	1.00787
0.000439	0.984252
0.000456	1.04724
0.000488	1.07087
0.00057	1.09843
0.000625	1.12598
0.000649	1.16535
0.000662	1.11811
