Adsorption isotherm of Krypton on C60 Sublimed
DOI: 10.1016/s0008-6223(98)00178-x
Article source: Figure 4
Adsorbate Krypton: InChIKey DNNSSWSSYDEUBZ-UHFFFAOYSA-N
Kind: experiment
Temperature: 77 K
Tabular data in the source: 0
pressure (bar)	uptake (coverage)
4.7e-05	0.476378
0.000121	0.649606
0.000188	0.814961
0.000279	0.897638
0.000383	0.976378
0.000495	1.03543
0.000616	1.11417
