Adsorption isotherm of Krypton on Diamond
DOI: 10.1016/s0008-6223(98)00178-x
Article source: Figure 2a
Adsorbate Krypton: InChIKey DNNSSWSSYDEUBZ-UHFFFAOYSA-N
Kind: experiment
Temperature: 77 K
Tabular data in the source: 0
pressure (bar)	uptake (coverage)
6e-06	0.101807
1.2e-05	0.305442
2.9e-05	0.524701
5.3e-05	0.728273
8.8e-05	0.853475
0.000111	0.916055
0.000188	0.970616
0.000358	1.09534
0.000798	1.29744
0.001226	1.49959
0.001572	1.72552
0.001847	2.06136
0.002012	2.42109
