Adsorption isotherm of Krypton on C60 Sublimed
DOI: 10.1016/s0008-6223(98)00178-x
Article source: Figure 4
Adsorbate Krypton: InChIKey DNNSSWSSYDEUBZ-UHFFFAOYSA-N
Kind: experiment
Temperature: 77 K
Tabular data in the source: 0
pressure (bar)	uptake (coverage)
4.6e-05	0.452756
8.6e-05	0.602362
0.000125	0.688976
0.000161	0.751969
0.000219	0.838583
0.000276	0.889764
0.00034	0.956693
0.000407	1.00787
0.000474	1.04331
0.000544	1.06299
0.000621	1.14961
