Adsorption isotherm of Oxygen on {[Zn3(ptp)3](DMF)2-(H2O)}
DOI: 10.1021/Ic2015463
Adsorbate Oxygen: InChIKey MYMOFIZGZYHOMD-UHFFFAOYSA-N
Temperature: 77 K
Tabular data in the source: 0
pressure (bar)	uptake (cm3(STP)/g)
0.00658518	45.9079
0.00801532	4.94857
0.00944547	89.3842
0.0108756	118.216
0.0223168	126.454
0.0494895	132.174
0.133868	138.123
0.315496	140.869
0.418466	141.556
0.491404	141.785
0.572922	142.013
0.665881	142.013
0.774572	142.471
