Adsorption isotherm of Hydrogen on {[Zn3(ptp)3](DMF)2-(H2O)}
DOI: 10.1021/Ic2015463
Adsorbate Hydrogen: InChIKey UFHFLCQGNIYNRP-UHFFFAOYSA-N
Temperature: 77 K
Tabular data in the source: 0
pressure (bar)	uptake (cm3(STP)/g)
0.00744863	8.45223
0.0178993	17.4663
0.031336	24.7903
0.0462655	30.0015
0.0582092	34.6494
0.0791106	40.2832
0.105984	46.0579
0.131364	50.8466
0.197054	59.8607
0.329928	70.7057
0.461308	77.3255
0.592688	82.3959
0.73004	86.3396
0.858435	89.8607
0.919646	91.5508
0.992801	93.241
