Adsorption isotherm of Hydrogen on {[Zn3(ptp)3](DMF)2-(H2O)}
DOI: 10.1021/Ic2015463
Adsorbate Hydrogen: InChIKey UFHFLCQGNIYNRP-UHFFFAOYSA-N
Temperature: 87 K
Tabular data in the source: 0
pressure (bar)	uptake (cm3(STP)/g)
0.0014768	0.70575
0.0178993	6.05786
0.0373078	11.2691
0.0611951	16.7621
0.0925472	21.6917
0.131364	27.3255
0.195561	34.3677
0.326942	44.6494
0.464294	51.9734
0.591195	56.9029
0.662857	59.579
0.725561	61.5508
0.794237	63.3818
0.862913	65.2128
0.928604	66.7621
