Adsorption isotherm of Methane on {[Zn3(ptp)3](DMF)2-(H2O)}
DOI: 10.1021/Ic2015463
Adsorbate Methane: InChIKey VNWKTOKETHGBQD-UHFFFAOYSA-N
Temperature: 273 K
Tabular data in the source: 0
pressure (bar)	uptake (cm3(STP)/g)
0.00894159	0.169929
0.0552233	1.18401
0.113449	2.1981
0.211984	4.22627
0.288125	5.57838
0.344857	6.25444
0.403082	7.26852
0.474744	8.11359
0.567308	9.4657
0.665843	10.4798
0.792744	11.6629
0.936068	12.846
