Adsorption isotherm of Nitrogen on {[Zn3(ptp)3](DMF)2-(H2O)}
DOI: 10.1021/Ic2015463
Adsorbate Nitrogen: InChIKey IJGRMHOSHXDMSA-UHFFFAOYSA-N
Temperature: 77 K
Tabular data in the source: 0
pressure (bar)	uptake (cm3(STP)/g)
0.00515504	73.8243
0.00801532	81.8331
0.0165962	90.7571
0.0337579	92.8166
0.0609306	93.9607
0.118136	94.6471
0.179632	95.5624
0.266871	95.7913
0.65015	94.6471
0.75026	93.503
0.820337	93.503
0.947619	92.5877
