Adsorption isotherm of Carbon Dioxide on {[Zn3(ptp)3](DMF)2-(H2O)}
DOI: 10.1021/Ic2015463
Adsorbate Carbon Dioxide: InChIKey CURLTUGMZLYLDI-UHFFFAOYSA-N
Temperature: 273 K
Tabular data in the source: 0
pressure (bar)	uptake (cm3(STP)/g)
0.00744863	0.254436
0.0178993	3.55021
0.0373078	8.28261
0.0611951	12.7615
0.0895613	18.0009
0.14928	24.7615
0.207505	29.6629
0.289618	34.7333
0.401589	40.3108
0.473251	43.2685
0.561336	46.1418
0.661364	48.677
0.78528	51.5502
0.934575	54.4235
