Adsorption isotherm of Nitrogen on ZIF-8
DOI: 10.1039/C2jm15685g
Adsorbate Nitrogen: InChIKey IJGRMHOSHXDMSA-UHFFFAOYSA-N
Temperature: 77 K
Tabular data in the source: 0
pressure (bar)	uptake (cm3(STP)/g)
0.000267923	47.7094
0.000321507	57.2513
0.00141463	251.906
0.00770546	372.122
0.0107062	406.468
0.0335118	467.491
0.0756507	471.225
0.114971	473.057
0.14306	474.91
0.171138	474.855
0.216074	476.675
0.249768	476.609
0.266605	474.667
0.317156	476.476
0.342427	476.427
0.370505	476.371
0.387363	478.247
0.446316	476.223
0.612011	481.622
0.665381	485.334
0.729972	487.116
0.777705	487.022
0.831075	490.734
0.901281	492.504
