Adsorption isotherm of Nitrogen on Titania
DOI: 10.1039/C2jm15685g
Adsorbate Nitrogen: InChIKey IJGRMHOSHXDMSA-UHFFFAOYSA-N
Temperature: 77 K
Tabular data in the source: 0
pressure (bar)	uptake (cm3(STP)/g)
0.00515395	0.00515395
0.0103079	69.375
0.0206158	90
0.0257698	96.875
0.0438086	106.25
0.0515395	110
0.0747323	114.375
0.0927711	118.125
0.113387	121.25
0.134003	123.125
0.154619	125
0.172657	126.25
0.190696	127.5
0.211312	128.125
0.231928	129.375
0.249967	130
0.273159	131.25
0.296352	133.125
0.3917	136.875
0.489625	141.25
0.584974	144.375
0.688053	147.5
0.783401	151.25
0.827209	152.5
0.873595	153.75
0.927711	156.25
