Adsorption isotherm of Ethene on Carbon
DOI: 10.1080/01496395.2012.712600
Adsorbate Ethene: InChIKey VGGSQFUCUMXWEO-UHFFFAOYSA-N
Temperature: 303 K
Tabular data in the source: 0
pressure (bar)	uptake (mmol/g)
0.0108756	0.609963
0.025177	0.844506
0.0494895	1.07333
0.0738019	1.30215
0.116706	1.51953
0.163901	1.73692
0.262581	2.03439
0.35983	2.28037
0.45565	2.46915
0.55862	2.62932
0.65587	2.76662
0.75312	2.90963
0.85323	3.02404
0.898994	3.08125
0.986233	3.17278
