Adsorption isotherm of Ethene on Carbon
DOI: 10.1080/01496395.2012.712600
Adsorbate Ethene: InChIKey VGGSQFUCUMXWEO-UHFFFAOYSA-N
Temperature: 343 K
Tabular data in the source: 0
pressure (bar)	uptake (mmol/g)
0.00421011	0.0338638
0.0211115	0.180343
0.0605481	0.394427
0.0985763	0.552174
0.139421	0.693019
0.199985	0.839498
0.298576	1.05922
0.398576	1.23386
0.492943	1.37471
0.592942	1.51555
0.691534	1.63386
0.790126	1.72964
0.891534	1.84795
0.987309	1.93809
