Adsorption isotherm of Nitrogen on Carbon
DOI: 10.1080/01496395.2012.712600
Adsorbate Nitrogen: InChIKey IJGRMHOSHXDMSA-UHFFFAOYSA-N
Temperature: 77 K
Tabular data in the source: 0
pressure (bar)	uptake (cm3(STP)/g)
0.00658518	5.63378
0.0108756	44.2476
0.0509196	57.1189
0.120997	67.845
0.228257	78.5711
0.364121	106.459
0.464231	132.201
0.547179	166.525
0.644429	185.832
0.743109	192.267
0.85323	200.848
0.939038	207.284
0.979082	222.3
0.993384	243.753
