Adsorption isotherm of Ethane on Carbon
DOI: 10.1080/01496395.2012.712600
Adsorbate Ethane: InChIKey OTMSDBZUPAUEDD-UHFFFAOYSA-N
Temperature: 303 K
Tabular data in the source: 0
pressure (bar)	uptake (mmol/g)
0.0182946	0.056399
0.0619566	0.19161
0.102802	0.287385
0.142238	0.38316
0.201393	0.501469
0.298576	0.647948
0.395759	0.788793
0.497168	0.901469
0.592942	0.997244
0.694351	1.09865
0.791534	1.17189
0.892942	1.26203
0.992943	1.33527
