Adsorption isotherm of Nitrogen on SBA-15
DOI: 10.1080/01496395.2012.712600
Adsorbate Nitrogen: InChIKey IJGRMHOSHXDMSA-UHFFFAOYSA-N
Temperature: 77 K
Tabular data in the source: 0
pressure (bar)	uptake (cm3(STP)/g)
0.00658518	492.597
0.00801532	419.66
0.0165962	526.921
0.0337579	550.518
0.0766622	578.406
0.178202	610.584
0.319786	644.908
0.504275	689.957
0.618686	724.281
0.697344	758.604
0.723087	799.363
0.75312	923.786
0.765991	964.545
0.800315	998.868
0.867531	1018.18
0.940469	1035.34
0.977652	1058.93
0.991954	1101.84
0.997674	1194.08
