Adsorption isotherm of Ethene on Carbon
DOI: 10.1080/01496395.2012.712600
Adsorbate Ethene: InChIKey VGGSQFUCUMXWEO-UHFFFAOYSA-N
Temperature: 303 K
Tabular data in the source: 0
pressure (bar)	uptake (mmol/g)
0.0112524	0.416962
0.0253369	0.580343
0.0450552	0.754991
0.0704073	0.974709
0.108435	1.19443
0.211252	1.56062
0.308435	1.82541
0.407027	2.0395
0.505619	2.23668
0.60421	2.39443
0.707027	2.54091
0.802802	2.67048
0.901393	2.78316
0.9859	2.88457
