Adsorption isotherm of Ethane on Carbon
DOI: 10.1080/01496395.2012.712600
Adsorbate Ethane: InChIKey OTMSDBZUPAUEDD-UHFFFAOYSA-N
Temperature: 303 K
Tabular data in the source: 0
pressure (bar)	uptake (mmol/g)
0.00984391	0.433864
0.0253369	0.670484
0.0337876	0.822596
0.0619566	1.05358
0.0901256	1.26767
0.111252	1.36908
0.209844	1.77471
0.260548	1.93809
0.356323	2.15781
0.450689	2.33246
0.554914	2.52964
0.653506	2.69302
0.753506	2.82823
0.854914	2.96344
0.950689	3.07612
0.987309	3.12119
