Adsorption isotherm of Nitrogen on Carbon
DOI: 10.1080/01496395.2012.712600
Adsorbate Nitrogen: InChIKey IJGRMHOSHXDMSA-UHFFFAOYSA-N
Temperature: 77 K
Tabular data in the source: 0
pressure (bar)	uptake (cm3(STP)/g)
0.00658518	228.736
0.00801532	271.64
0.0294675	297.383
0.0823828	320.98
0.142449	335.997
0.212526	351.013
0.288323	372.465
0.35983	396.063
0.441349	426.096
0.517146	473.291
0.568631	501.178
0.665881	514.05
0.771712	524.776
0.880403	539.792
0.95906	552.664
0.980513	567.68
0.991954	610.584
