Adsorption isotherm of Ethane on Carbon
DOI: 10.1080/01496395.2012.712600
Adsorbate Ethane: InChIKey OTMSDBZUPAUEDD-UHFFFAOYSA-N
Temperature: 323 K
Tabular data in the source: 0
pressure (bar)	uptake (mmol/g)
0.0182946	0.371892
0.0408298	0.59161
0.0605481	0.715554
0.0957594	0.952174
0.14083	1.12119
0.199985	1.33527
0.298576	1.58879
0.395759	1.81415
0.490126	1.98316
0.591534	2.14654
0.691534	2.28738
0.788717	2.4226
0.888717	2.54091
0.981675	2.65358
