Adsorption isotherm of Ethene on Carbon
DOI: 10.1080/01496395.2012.712600
Adsorbate Ethene: InChIKey VGGSQFUCUMXWEO-UHFFFAOYSA-N
Temperature: 343 K
Tabular data in the source: 0
pressure (bar)	uptake (mmol/g)
0.0182946	0.157807
0.0619566	0.422596
0.0971678	0.557807
0.14083	0.704286
0.198576	0.845131
0.299985	1.03668
0.401393	1.17753
0.495759	1.3071
0.601393	1.42541
0.695759	1.53246
0.795759	1.64513
0.894351	1.73527
0.990126	1.80851
