Adsorption isotherm of Ethane on Carbon
DOI: 10.1080/01496395.2012.712600
Adsorbate Ethane: InChIKey OTMSDBZUPAUEDD-UHFFFAOYSA-N
Temperature: 343 K
Tabular data in the source: 0
pressure (bar)	uptake (mmol/g)
0.0154777	0.0338638
0.0619566	0.0394976
0.0999848	0.124005
0.136604	0.169075
0.201393	0.242315
0.298576	0.349357
0.398576	0.42823
0.495759	0.518371
0.597168	0.59161
0.697168	0.676117
0.791534	0.743723
0.891534	0.794427
0.994351	0.850765
