Adsorption isotherm of Nitrogen on Carbon
DOI: 10.1080/01496395.2012.712600
Adsorbate Nitrogen: InChIKey IJGRMHOSHXDMSA-UHFFFAOYSA-N
Temperature: 77 K
Tabular data in the source: 0
pressure (bar)	uptake (cm3(STP)/g)
0.00658518	623.456
0.00801532	782.201
0.0180263	831.541
0.065221	874.446
0.165331	913.06
0.299764	979.561
0.388433	1041.77
0.462801	1129.73
0.501415	1187.65
0.55862	1230.55
0.642999	1256.29
0.768851	1275.6
0.894704	1292.76
0.960491	1305.63
0.983373	1322.8
0.997674	1397.88
