Adsorption isotherm of Ethane on Carbon
DOI: 10.1080/01496395.2012.712600
Adsorbate Ethane: InChIKey OTMSDBZUPAUEDD-UHFFFAOYSA-N
Temperature: 303 K
Tabular data in the source: 0
pressure (bar)	uptake (mmol/g)
0.00515504	0.0893909
0.0394785	0.192361
0.0637909	0.28389
0.122427	0.461228
0.209665	0.667169
0.308345	0.861668
0.407025	1.03329
0.507135	1.17058
0.607245	1.29643
0.704495	1.41656
0.804605	1.53097
0.898994	1.62822
0.987663	1.70831
