Adsorption isotherm of Ethane on Carbon
DOI: 10.1080/01496395.2012.712600
Adsorbate Ethane: InChIKey OTMSDBZUPAUEDD-UHFFFAOYSA-N
Temperature: 323 K
Tabular data in the source: 0
pressure (bar)	uptake (mmol/g)
0.0394214	0.0733004
0.0802664	0.174709
0.121112	0.253582
0.161957	0.321188
0.201393	0.388793
0.299985	0.512737
0.397168	0.608512
0.495759	0.704286
0.595759	0.800061
0.697168	0.895836
0.794351	0.969075
0.890126	1.04795
0.988717	1.11555
