Adsorption isotherm of Ethene on Carbon
DOI: 10.1080/01496395.2012.712600
Adsorbate Ethene: InChIKey VGGSQFUCUMXWEO-UHFFFAOYSA-N
Temperature: 323 K
Tabular data in the source: 0
pressure (bar)	uptake (mmol/g)
0.0168862	0.366258
0.0408298	0.501469
0.0619566	0.608512
0.101393	0.78316
0.14083	0.952174
0.17745	1.07612
0.197168	1.11555
0.297168	1.38034
0.398576	1.57189
0.495759	1.74091
0.597168	1.88738
0.691534	2.0226
0.790126	2.14091
0.890126	2.26485
0.9859	2.36062
