Adsorption isotherm of Ethene on Carbon
DOI: 10.1080/01496395.2012.712600
Adsorbate Ethene: InChIKey VGGSQFUCUMXWEO-UHFFFAOYSA-N
Temperature: 323 K
Tabular data in the source: 0
pressure (bar)	uptake (mmol/g)
0.0165962	0.386861
0.035188	0.58136
0.0637909	0.758698
0.0995445	0.936036
0.161041	1.18202
0.261151	1.44517
0.35983	1.62822
0.462801	1.7884
0.55576	1.91997
0.65587	2.06299
0.75169	2.18884
0.85323	2.30325
0.95048	2.41194
0.989093	2.44055
