Adsorption isotherm of Ethane on Carbon
DOI: 10.1080/01496395.2012.712600
Adsorbate Ethane: InChIKey OTMSDBZUPAUEDD-UHFFFAOYSA-N
Temperature: 343 K
Tabular data in the source: 0
pressure (bar)	uptake (mmol/g)
0.0211115	0.276117
0.0605481	0.524005
0.0985763	0.704286
0.138013	0.839498
0.178858	0.974709
0.294351	1.2564
0.397168	1.45358
0.495759	1.60006
0.595759	1.74654
0.687309	1.87048
0.791534	1.97753
0.888717	2.0902
0.9859	2.19161
