Adsorption isotherm of Ethane on Carbon
DOI: 10.1080/01496395.2012.712600
Adsorbate Ethane: InChIKey OTMSDBZUPAUEDD-UHFFFAOYSA-N
Temperature: 323 K
Tabular data in the source: 0
pressure (bar)	uptake (mmol/g)
0.0366182	0.112273
0.0966842	0.255287
0.125287	0.323934
0.211096	0.489831
0.308345	0.650007
0.408455	0.798742
0.504275	0.930315
0.608675	1.06189
0.704495	1.15342
0.801745	1.26211
0.901855	1.34792
0.987663	1.43945
