Adsorption isotherm of Ethene on Carbon
DOI: 10.1080/01496395.2012.712600
Adsorbate Ethene: InChIKey VGGSQFUCUMXWEO-UHFFFAOYSA-N
Temperature: 303 K
Tabular data in the source: 0
pressure (bar)	uptake (mmol/g)
0.02252	0.969075
0.035196	1.24513
0.0619566	1.45922
0.0901256	1.7071
0.107027	1.85358
0.157731	1.92119
0.214069	2.12964
0.311252	2.43386
0.412661	2.65922
0.509844	2.8395
0.608435	3.00288
0.708435	3.13809
0.802802	3.2733
0.899985	3.40288
0.950689	3.45922
0.987309	3.51555
