Adsorption isotherm of Ethene on Carbon
DOI: 10.1080/01496395.2012.712600
Adsorbate Ethene: InChIKey VGGSQFUCUMXWEO-UHFFFAOYSA-N
Temperature: 343 K
Tabular data in the source: 0
pressure (bar)	uptake (mmol/g)
0.00515504	0.117994
0.0366182	0.295331
0.0738019	0.472669
0.112416	0.604242
0.165331	0.752977
0.265441	0.953197
0.3584	1.11909
0.45422	1.27355
0.55576	1.41084
0.65444	1.51381
0.75455	1.63395
0.848939	1.72547
0.901855	1.77124
0.95334	1.83989
0.981943	1.87421
