Adsorption isotherm of Ethane on Carbon
DOI: 10.1080/01496395.2012.712600
Adsorbate Ethane: InChIKey OTMSDBZUPAUEDD-UHFFFAOYSA-N
Temperature: 343 K
Tabular data in the source: 0
pressure (bar)	uptake (mmol/g)
0.0366182	0.0722291
0.0966842	0.192361
0.125287	0.238126
0.212526	0.386861
0.311206	0.524154
0.404165	0.638566
0.507135	0.752977
0.602955	0.844506
0.703065	0.947477
0.803175	1.03329
0.906145	1.11337
0.989093	1.2049
