Adsorption isotherm of Ethene on Carbon
DOI: 10.1080/01496395.2012.712600
Adsorbate Ethene: InChIKey VGGSQFUCUMXWEO-UHFFFAOYSA-N
Temperature: 323 K
Tabular data in the source: 0
pressure (bar)	uptake (mmol/g)
0.0211115	0.70992
0.0436467	0.884568
0.0802664	1.12119
0.118295	1.2902
0.15914	1.41415
0.201393	1.52682
0.301393	1.724
0.401393	1.89302
0.494351	2.01696
0.594351	2.13527
0.698576	2.25358
0.792943	2.36062
0.894351	2.45077
0.991534	2.55217
