Adsorption isotherm of Carbon Dioxide on Zeolite X
DOI: 10.1016/j.ijggc.2011.10.007
Adsorbate Carbon Dioxide: InChIKey CURLTUGMZLYLDI-UHFFFAOYSA-N
Temperature: 308 K
Tabular data in the source: 0
pressure (bar)	uptake (mmol/g)
0.011236	0.072738
0.11236	0.399445
0.162921	1.30976
0.219101	2.07426
0.308989	2.61973
0.398876	3.00123
0.533708	3.34574
0.679775	3.58081
0.842697	3.76102
1.01685	3.90465
1.11236	3.97637
