Adsorption isotherm of Carbon Dioxide on CuBTC
DOI: 10.1016/j.ijggc.2011.10.007
Adsorbate Carbon Dioxide: InChIKey CURLTUGMZLYLDI-UHFFFAOYSA-N
Temperature: 308 K
Tabular data in the source: 0
pressure (bar)	uptake (mmol/g)
0.134831	0.107674
0.207865	0.161443
0.314607	0.324114
0.477528	0.650071
0.623596	1.03089
0.797753	1.53889
0.910112	1.93834
1	2.21053
1.10112	2.57367
