Adsorption isotherm of Nitrogen on Zeolite X
DOI: 10.1016/j.ijggc.2011.10.007
Adsorbate Nitrogen: InChIKey IJGRMHOSHXDMSA-UHFFFAOYSA-N
Temperature: 308 K
Tabular data in the source: 0
pressure (bar)	uptake (mmol/g)
0.066923	0.00599442
0.152089	0.0131838
0.273765	0.0239728
0.389319	0.0323473
0.504873	0.0407219
0.638719	0.0527107
0.729982	0.0611049
0.851633	0.0706842
0.973334	0.0826828
1.12535	0.0922376
