Adsorption isotherm of Nitrogen on CuBTC
DOI: 10.1016/j.ijggc.2011.10.007
Adsorbate Nitrogen: InChIKey IJGRMHOSHXDMSA-UHFFFAOYSA-N
Temperature: 308 K
Tabular data in the source: 0
pressure (bar)	uptake (mmol/g)
0.048876	0.0144767
0.134262	0.032553
0.201455	0.0518537
0.280743	0.0687252
0.384519	0.0952544
0.50049	0.124193
0.616387	0.149503
0.726284	0.178447
0.854351	0.204956
0.970297	0.232685
1.11673	0.266438
