Adsorption isotherm of Nitrogen on (h-BN) nanosheet
DOI: 10.1039/c7ra11248c
Article source: Figure 6
Adsorbate Nitrogen: InChIKey IJGRMHOSHXDMSA-UHFFFAOYSA-N
Kind: experiment
Temperature: 77 K
Tabular data in the source: 0
pressure (bar)	uptake (cm3(STP)/g)
0.000659	29.289
0.048412	28.111
0.08499	31.263
0.113441	34.809
0.143929	37.567
0.176444	40.719
0.182544	41.9
0.209982	44.265
0.233357	49.385
0.24351	46.236
0.276024	50.175
0.29331	55.295
0.310575	53.721
0.34309	56.479
0.353263	63.961
0.377641	61.6
0.412192	65.934
0.412192	69.084
0.45182	71.842
0.468082	76.569
0.500596	78.146
0.524995	86.81
0.55446	86.811
0.590024	95.87
0.609336	95.084
0.658113	106.899
0.666239	104.144
0.714003	115.959
0.722139	124.229
0.769903	130.925
0.788202	146.283
0.827839	153.767
0.852248	178.181
0.888826	186.059
0.896992	223.072
0.928534	268.75
0.93358	238.431
0.94584	307.339
0.955	329.39
0.963116	307.734
0.971252	323.485
