Adsorption isotherm of Carbon Dioxide on CuBTC
DOI: 10.1021/acs.langmuir.5b01171
Article source: Figure 3a
Adsorbate Carbon Dioxide: InChIKey CURLTUGMZLYLDI-UHFFFAOYSA-N
Kind: experiment
Temperature: 298 K
Tabular data in the source: 0
pressure (bar)	uptake (mmol/g)
0.022177	0.142857
0.02621	0.190476
0.052419	0.342857
0.090726	0.485714
0.125	0.666667
0.16129	0.828571
0.189516	0.942857
0.225806	1.09524
0.262097	1.22857
0.298387	1.35238
0.334677	1.49524
0.370968	1.61905
0.407258	1.75238
0.441532	1.85714
0.477823	1.95238
0.512097	2.08571
0.550403	2.19048
0.586694	2.29524
0.622984	2.40952
0.657258	2.50476
0.693548	2.6
0.725806	2.68571
0.762097	2.78095
0.798387	2.87619
0.834677	2.97143
0.870968	3.05714
0.907258	3.12381
0.925403	3.1619
0.959677	3.2381
0.977823	3.28571
0.995968	3.32381
