Adsorption isotherm of Carbon Dioxide on Cu3(btc)2/GO-h
DOI: 10.1021/acs.langmuir.5b01171
Article source: Figure 3a
Adsorbate Carbon Dioxide: InChIKey CURLTUGMZLYLDI-UHFFFAOYSA-N
Kind: experiment
Temperature: 298 K
Tabular data in the source: 0
pressure (bar)	uptake (mmol/g)
0.014113	0.07619
0.032258	0.142857
0.044355	0.209524
0.060484	0.266667
0.078629	0.342857
0.090726	0.390476
0.129032	0.52381
0.169355	0.657143
0.191532	0.733333
0.231855	0.866667
0.258065	0.952381
0.300403	1.06667
0.332661	1.14286
0.368952	1.2381
0.403226	1.34286
0.443548	1.41905
0.475806	1.51429
0.512097	1.59048
0.548387	1.68571
0.582661	1.74286
0.620968	1.8381
0.657258	1.91429
0.693548	1.99048
0.72379	2.04762
0.760081	2.14286
0.796371	2.2
0.832661	2.27619
0.872984	2.37143
0.905242	2.41905
0.923387	2.46667
0.957661	2.52381
0.975806	2.5619
0.995968	2.6
