Adsorption isotherm of Carbon Dioxide on Cu3(btc)2/GO-m
DOI: 10.1021/acs.langmuir.5b01171
Article source: Figure 3a
Adsorbate Carbon Dioxide: InChIKey CURLTUGMZLYLDI-UHFFFAOYSA-N
Kind: experiment
Temperature: 298 K
Tabular data in the source: 0
pressure (bar)	uptake (mmol/g)
0.157258	0.72381
0.167339	0.752381
0.197581	0.866667
0.229839	0.971429
0.266129	1.07619
0.302419	1.2
0.340726	1.30476
0.375	1.39048
0.409274	1.48571
0.441532	1.59048
0.481855	1.66667
0.512097	1.72381
0.550403	1.82857
0.586694	1.90476
0.627016	2.00952
0.657258	2.07619
0.697581	2.1619
0.727823	2.21905
0.770161	2.30476
0.806452	2.3619
0.836694	2.42857
0.872984	2.50476
0.905242	2.5619
0.927419	2.60952
0.939516	2.62857
0.961694	2.68571
0.977823	2.70476
0.995968	2.72381
