Adsorption isotherm of Carbon Dioxide on Cu3(btc)2/GO-l
DOI: 10.1021/acs.langmuir.5b01171
Article source: Figure 3a
Adsorbate Carbon Dioxide: InChIKey CURLTUGMZLYLDI-UHFFFAOYSA-N
Kind: experiment
Temperature: 298 K
Tabular data in the source: 0
pressure (bar)	uptake (mmol/g)
0.018145	0.085714
0.032258	0.190476
0.044355	0.257143
0.060484	0.314286
0.076613	0.409524
0.092742	0.47619
0.125	0.619048
0.143145	0.666667
0.175403	0.8
0.199597	0.885714
0.217742	0.942857
0.221774	1.00952
0.245968	1.06667
0.262097	1.13333
0.282258	1.2
0.296371	1.26667
0.318548	1.32381
0.334677	1.37143
0.354839	1.4381
0.368952	1.47619
0.409274	1.60952
0.423387	1.64762
0.46371	1.7619
0.495968	1.86667
0.532258	1.9619
0.568548	2.0381
0.604839	2.1619
0.641129	2.2381
0.675403	2.33333
0.711694	2.42857
0.743952	2.48571
0.784274	2.58095
0.820565	2.67619
0.852823	2.7619
0.891129	2.82857
0.90121	2.87619
0.919355	2.88571
0.959677	2.98095
0.975806	3.01905
0.993952	3.05714
