Adsorption isotherm of Carbon Dioxide on UiO-66
DOI: 10.1039/C3cc40470f
Adsorbate Carbon Dioxide: InChIKey CURLTUGMZLYLDI-UHFFFAOYSA-N
Temperature: 273 K
Tabular data in the source: 0
pressure (bar)	uptake (mmol/g)
0.0319286	0.338684
0.102292	1.0466
0.153777	1.46492
0.303084	2.37235
0.498727	3.09957
0.751005	3.68522
0.999849	4.08423
1.19549	4.35453
