Adsorption isotherm of Carbon Dioxide on UiO-66
DOI: 10.1039/C3cc40470f
Adsorbate Carbon Dioxide: InChIKey CURLTUGMZLYLDI-UHFFFAOYSA-N
Temperature: 273 K
Tabular data in the source: 0
pressure (bar)	uptake (mmol/g)
0.0816976	0.345119
0.136615	0.538188
0.182952	0.679773
0.24645	0.859971
0.339123	1.07235
0.404338	1.23967
0.491863	1.41987
0.550212	1.51641
0.608562	1.62581
0.675493	1.72235
0.737275	1.83175
0.795625	1.91542
0.859123	2.00552
0.917473	2.08274
0.982688	2.16641
1.03932	2.23076
1.1011	2.30799
1.13543	2.3466
1.1646	2.36591
