Adsorption isotherm of Carbon Dioxide on UiO-66
DOI: 10.1039/C3cc40470f
Adsorbate Carbon Dioxide: InChIKey CURLTUGMZLYLDI-UHFFFAOYSA-N
Temperature: 273 K
Tabular data in the source: 0
pressure (bar)	uptake (mmol/g)
0.152061	0.647594
0.301368	1.19462
0.503876	1.74165
0.751005	2.25007
0.998133	2.64908
1.19549	2.93225
