Adsorption isotherm of Carbon Dioxide on UiO-66
DOI: 10.1039/C3cc40470f
Adsorbate Carbon Dioxide: InChIKey CURLTUGMZLYLDI-UHFFFAOYSA-N
Temperature: 273 K
Tabular data in the source: 0
pressure (bar)	uptake (mmol/g)
0.104008	0.795614
0.153777	1.13027
0.303084	1.91542
0.50216	2.59116
0.749288	3.19611
0.998133	3.59512
1.20064	3.83324
