Adsorption isotherm of Carbon Dioxide on UiO-66
DOI: 10.1039/C3cc40470f
Adsorbate Carbon Dioxide: InChIKey CURLTUGMZLYLDI-UHFFFAOYSA-N
Temperature: 273 K
Tabular data in the source: 0
pressure (bar)	uptake (mmol/g)
0.00961839	0.0104657
0.0731167	0.248585
0.105724	0.351555
0.131467	0.435218
0.160641	0.512446
0.200113	0.641159
0.243018	0.750565
0.291071	0.90502
0.359717	1.05304
0.442094	1.26542
0.534767	1.4971
0.654899	1.72878
0.795625	2.02482
0.841962	2.13423
0.886582	2.24363
0.975823	2.40453
