Adsorption isotherm of Carbon Dioxide on UiO-66
DOI: 10.1039/C3cc40470f
Adsorbate Carbon Dioxide: InChIKey CURLTUGMZLYLDI-UHFFFAOYSA-N
Temperature: 273 K
Tabular data in the source: 0
pressure (bar)	uptake (mmol/g)
0.0164831	0.0941291
0.0748329	0.409476
0.10744	0.628287
0.164074	0.917891
0.239585	1.30403
0.296219	1.52928
0.359717	1.79314
0.436945	2.06987
0.534767	2.37878
0.648034	2.71344
0.804206	3.13819
0.841962	3.24116
0.88315	3.34413
0.968958	3.55651
1.18863	4.03274
