Adsorption isotherm of Carbon Dioxide on UiO-66
DOI: 10.1039/C3cc40470f
Adsorbate Carbon Dioxide: InChIKey CURLTUGMZLYLDI-UHFFFAOYSA-N
Temperature: 273 K
Tabular data in the source: 0
pressure (bar)	uptake (mmol/g)
0.00103753	0.0297726
0.0731167	0.576802
0.109156	0.808486
0.158925	1.09165
0.241302	1.48423
0.292787	1.70948
0.36315	1.9669
0.438661	2.26294
0.531335	2.59759
0.653183	2.94512
0.795625	3.35056
0.840245	3.47928
0.884866	3.60799
0.970675	3.8268
1.19034	4.34809
