Adsorption isotherm of Methane on Zeolite Na-Y
DOI: 10.1016/j.micromeso.2008.10.014
Adsorbate Methane: InChIKey VNWKTOKETHGBQD-UHFFFAOYSA-N
Temperature: 303 K
Tabular data in the source: 0
pressure (bar)	uptake (molecules/unitcell)
0.21081	0.339858
2.28123	13.3539
4.09813	13.692
5.91504	13.692
9.76011	14.199
13.901	14.7061
17.408	15.0441
21.4643	15.0441
24.9714	15.3821
26.8305	15.2131
28.5629	15.7201
30.084	15.5511
