Adsorption isotherm of Methane on Zeolite Na-Y
DOI: 10.1016/j.micromeso.2008.10.014
Adsorbate Methane: InChIKey VNWKTOKETHGBQD-UHFFFAOYSA-N
Temperature: 303 K
Tabular data in the source: 0
pressure (bar)	uptake (molecules/unitcell)
0.168557	0.14237
0.21081	37.4663
2.11222	62.5367
3.92912	67.6072
5.95729	70.7057
7.98546	72.9593
9.88687	74.3677
11.7883	74.7903
13.6474	74.9311
15.6756	76.3396
17.5348	75.3536
19.5207	76.7621
23.1122	77.0438
