Adsorption isotherm of Carbon Dioxide on Zeolite Na-Y
DOI: 10.1016/j.micromeso.2008.10.014
Adsorbate Carbon Dioxide: InChIKey CURLTUGMZLYLDI-UHFFFAOYSA-N
Temperature: 303 K
Tabular data in the source: 0
pressure (bar)	uptake (molecules/unitcell)
0.295317	3.72014
0.422078	9.80465
0.633345	15.2131
1.09813	22.9877
1.43616	31.6075
2.06997	40.3962
2.70377	47.3258
3.29532	52.2272
4.47842	57.2976
5.53475	61.3539
7.39391	64.9032
9.92912	68.2835
12.3376	70.3117
14.6193	72.0018
