Adsorption isotherm of Carbon Dioxide on Zeolite Na-Y
DOI: 10.1016/j.micromeso.2008.10.014
Adsorbate Carbon Dioxide: InChIKey CURLTUGMZLYLDI-UHFFFAOYSA-N
Temperature: 303 K
Tabular data in the source: 0
pressure (bar)	uptake (molecules/unitcell)
0.295317	11.1568
0.295317	54.9314
0.506585	60.5089
0.80236	65.7483
1.56292	74.199
1.8587	77.0723
4.01363	85.3539
6.08405	88.7342
10.0136	90.9314
12.1686	93.9737
16.0981	96.1708
18.1263	94.6497
19.901	98.03
21.9291	97.3539
