Adsorption isotherm of Methane on Zeolite Na-Y
DOI: 10.1016/j.micromeso.2008.10.014
Adsorbate Methane: InChIKey VNWKTOKETHGBQD-UHFFFAOYSA-N
Temperature: 303 K
Tabular data in the source: 0
pressure (bar)	uptake (molecules/unitcell)
0.351732	0.00283215
1.54891	0.0042406
3.62638	0.00283215
4.54187	0.00846595
6.47849	0.0042406
7.25314	0.0098744
8.30948	0.0098744
9.6123	0.0239589
10.7038	0.0295927
11.5137	0.036635
12.57	0.036635
13.5207	0.0422688
14.5419	0.0422688
