Adsorption isotherm of Methane on Zeolite Na-Y
DOI: 10.1016/j.micromeso.2008.10.014
Adsorbate Methane: InChIKey VNWKTOKETHGBQD-UHFFFAOYSA-N
Temperature: 303 K
Tabular data in the source: 0
pressure (bar)	uptake (molecules/unitcell)
0.281309	1.52e-05
2.14751	0.00564905
4.0137	0.00846595
5.91511	0.0098744
7.64046	0.0112829
11.3376	0.0112829
12.9926	0.0225505
16.4081	0.0310012
18.1686	0.0239589
19.7884	0.0450857
21.4785	0.0253674
