Adsorption isotherm of Methane on Zeolite Na-Y
DOI: 10.1016/j.micromeso.2008.10.014
Adsorbate Methane: InChIKey VNWKTOKETHGBQD-UHFFFAOYSA-N
Temperature: 303 K
Tabular data in the source: 0
pressure (bar)	uptake (molecules/unitcell)
0.253064	0.339858
2.28123	13.0159
4.18264	17.7483
6.25306	21.4666
9.92912	28.2272
13.6474	32.7906
17.746	36.1708
21.5911	39.5511
24.8869	41.4103
26.7883	43.1004
29.7038	44.6215
