Adsorption isotherm of Carbon Dioxide on Zeolite Na-Y
DOI: 10.1016/j.micromeso.2008.10.014
Adsorbate Carbon Dioxide: InChIKey CURLTUGMZLYLDI-UHFFFAOYSA-N
Temperature: 303 K
Tabular data in the source: 0
pressure (bar)	uptake (molecules/unitcell)
0.197555	19.157
0.197555	34.2593
0.283364	46.4441
0.326268	56.2263
0.626598	62.9193
1.99954	78.1933
3.41538	84.5431
4.74541	87.8038
6.97643	91.0646
9.59359	94.3253
11.7388	95.5266
14.3131	98.4441
17.9599	101.018
20.9632	103.593
23.4517	105.995
25.9401	108.57
28.8576	109.942
