Adsorption isotherm of Methane on Zeolite Na-Y
DOI: 10.1016/j.micromeso.2008.10.014
Adsorbate Methane: InChIKey VNWKTOKETHGBQD-UHFFFAOYSA-N
Temperature: 303 K
Tabular data in the source: 0
pressure (bar)	uptake (molecules/unitcell)
0.246098	0.0225505
1.93624	0.683114
3.90807	0.82255
5.91511	0.869029
7.71089	0.878888
9.6123	0.894381
11.2672	0.916917
13.0278	0.919734
14.8588	0.933818
16.4081	0.931001
18.063	0.931001
19.894	0.949311
21.4785	0.945086
