Adsorption isotherm of Carbon Dioxide on Zeolite Na-Y
DOI: 10.1016/j.micromeso.2008.10.014
Adsorbate Carbon Dioxide: InChIKey CURLTUGMZLYLDI-UHFFFAOYSA-N
Temperature: 303 K
Tabular data in the source: 0
pressure (bar)	uptake (molecules/unitcell)
0.169451	0.0223881
0.496371	0.171642
1.10485	0.365672
1.38257	0.44403
1.59652	0.578358
1.87038	0.690299
2.89393	0.764925
3.80452	0.824627
5.74807	0.876866
7.46654	0.891791
9.47171	0.906716
11.3044	0.925373
13.082	0.925373
14.7431	0.940299
16.5206	0.940299
18.0692	0.936567
19.845	0.951493
21.3363	0.947761
