Adsorption isotherm of Methane on Zeolite Na-Y
DOI: 10.1016/j.micromeso.2008.10.014
Adsorbate Methane: InChIKey VNWKTOKETHGBQD-UHFFFAOYSA-N
Temperature: 303 K
Tabular data in the source: 0
pressure (bar)	uptake (molecules/unitcell)
2.06997	12.6776
4.18264	17.3255
6.0418	21.41
8.06997	24.9311
9.92912	27.748
11.9573	30.4241
13.8587	32.9593
17.408	35.917
21.2108	39.0156
24.9714	41.8325
26.7883	42.9593
29.7883	44.3677
