Adsorption isotherm of Carbon Dioxide on Zeolite Na-Y
DOI: 10.1016/j.micromeso.2008.10.014
Adsorbate Carbon Dioxide: InChIKey CURLTUGMZLYLDI-UHFFFAOYSA-N
Temperature: 303 K
Tabular data in the source: 0
pressure (bar)	uptake (molecules/unitcell)
0.0688425	0.279085
0.154651	12.2923
0.24046	54.8533
0.454981	60.3451
0.84112	66.3517
1.22726	71.6718
1.95663	76.8203
3.93023	85.4012
5.86092	88.4903
7.70581	89.52
9.6365	90.7213
11.4385	93.2956
14.9566	96.2131
16.6299	94.4969
18.6464	97.586
21.6497	96.0415
26.0688	100.16
29.8873	100.675
