Adsorption isotherm of Methane on Zeolite Na-Y
DOI: 10.1016/j.micromeso.2008.10.014
Adsorbate Methane: InChIKey VNWKTOKETHGBQD-UHFFFAOYSA-N
Temperature: 303 K
Tabular data in the source: 0
pressure (bar)	uptake (molecules/unitcell)
0.0417962	0.14237
0.295317	7.18462
2.19673	18.4522
4.14039	29.1565
6.21081	36.3396
9.88687	47.3255
13.7319	54.5086
17.2812	59.7198
19.6474	60.4241
21.3798	63.3818
24.9291	66.0579
26.8305	67.3255
29.746	68.5931
