Adsorption isotherm of Carbon Dioxide on Zeolite Na-Y
DOI: 10.1016/j.micromeso.2008.10.014
Adsorbate Carbon Dioxide: InChIKey CURLTUGMZLYLDI-UHFFFAOYSA-N
Temperature: 303 K
Tabular data in the source: 0
pressure (bar)	uptake (molecules/unitcell)
0.492577	0.123959
0.774267	0.249311
1.1968	0.356353
2.04187	0.53241
2.92215	0.663396
3.48553	0.700015
4.40103	0.767621
5.38694	0.805649
7.4292	0.860579
8.52075	0.885931
11.5137	0.92255
13.556	0.942269
14.6827	0.954945
