Adsorption isotherm of Methane on Zeolite Na-Y
DOI: 10.1016/j.micromeso.2008.10.014
Adsorbate Methane: InChIKey VNWKTOKETHGBQD-UHFFFAOYSA-N
Temperature: 303 K
Tabular data in the source: 0
pressure (bar)	uptake (molecules/unitcell)
0.21081	12.6776
2.15447	31.6917
4.05588	48.7339
6.08405	59.8607
7.9432	66.4804
10.0559	71.41
13.8164	77.0438
17.5348	81.2691
19.4784	81.9734
21.4643	83.8043
25.0136	85.4945
26.7883	86.4804
28.5207	87.0438
