Adsorption isotherm of Carbon Dioxide on Zeolite Na-Y
DOI: 10.1016/j.micromeso.2008.10.014
Adsorbate Carbon Dioxide: InChIKey CURLTUGMZLYLDI-UHFFFAOYSA-N
Temperature: 303 K
Tabular data in the source: 0
pressure (bar)	uptake (molecules/unitcell)
5.74602	88.7342
7.68968	90.0863
9.6756	91.1004
11.6193	93.2976
13.3517	95.8328
14.9995	96.6779
16.901	94.6497
18.4221	97.523
21.5488	96.0018
23.4502	97.861
24.9291	99.7201
26.2812	100.227
29.915	100.734
