Adsorption isotherm of Methane on Zeolite Na-Y
DOI: 10.1016/j.micromeso.2008.10.014
Adsorbate Methane: InChIKey VNWKTOKETHGBQD-UHFFFAOYSA-N
Temperature: 303 K
Tabular data in the source: 0
pressure (bar)	uptake (molecules/unitcell)
1.56292	6.05786
2.45025	9.71983
4.26715	15.3536
6.84461	21.9734
9.92912	28.4522
12.5066	32.3959
17.9573	38.0297
22.5207	40.8466
26.239	43.1001
29.239	44.6494
33.9291	46.1987
