Adsorption isotherm of Carbon Dioxide on Zeolite Na-Y
DOI: 10.1016/j.micromeso.2008.10.014
Adsorbate Carbon Dioxide: InChIKey CURLTUGMZLYLDI-UHFFFAOYSA-N
Temperature: 303 K
Tabular data in the source: 0
pressure (bar)	uptake (molecules/unitcell)
0.0688425	0.450702
0.326268	26.1933
0.454981	44.5563
0.798215	49.8764
0.926928	55.7114
1.95663	61.5464
3.93023	71.6718
5.90383	76.4771
7.6629	79.5662
11.2669	83.5134
14.9566	86.2593
18.2603	87.4606
21.3065	88.1471
24.6959	89.6916
26.0688	90.2065
29.8873	90.2065
