Adsorption isotherm of Rhodamine B on 2-OA
DOI: 10.1039/c7sm01977g
Article source: Figure 9
Adsorbate Rhodamine B: InChIKey PYWVYCXTNDRMGF-UHFFFAOYSA-N
Kind: experiment
Temperature: 298 K
Tabular data in the source: 0
pressure (bar)	uptake (mg/g)
1.01325	96.68
1.01325	193.67
1.01325	260.93
1.01325	377.32
1.01325	614.01
1.01325	788.66
1.01325	1151.44
1.01325	1173.6
1.01325	1208.94
