Adsorption isotherm of Bromophenol Blue, Water on 2-OA
DOI: 10.1039/c7sm01977g
Article source: Figure 9
Adsorbate Bromophenol Blue: InChIKey UDSAIICHUKSCKT-UHFFFAOYSA-N
Adsorbate Water: InChIKey XLYOFNOQVPJJNP-UHFFFAOYSA-N
Kind: experiment
Temperature: 298 K
Tabular data in the source: 0
pressure (bar)	Bromophenol Blue fraction	Bromophenol Blue uptake (mg/g)	Water fraction	Water uptake (mg/g)	total uptake (mg/g)
1.01325	2.74	96.68			
1.01325	3.29	558.32			
1.01325	4	400.57			
1.01325	4.5	1083.33			
1.01325	4.68	338.5			
1.01325	4.72	193.67			
1.01325	5.15	1145.4			
1.01325	5.65	1807.47			
1.01325	5.98	483.34			
1.01325	7.38	260.93			
1.01325	149.33	2467.93			
1.01325	400.89	2511.02			
1.01325	701.5	2603.59			
1.01325	893.69	2614.67			
