Adsorption isotherm of Methyl Orange on 2-OA
DOI: 10.1039/c7sm01977g
Article source: Figure 9
Adsorbate Methyl Orange: InChIKey STZCRXQWRGQSJD-GEEYTBSJSA-M
Kind: experiment
Temperature: 298 K
Tabular data in the source: 0
pressure (bar)	uptake (mg/g)
1.01325	96.68
1.01325	193.67
1.01325	260.93
1.01325	377.32
1.01325	614.01
1.01325	741.03
1.01325	785.6
1.01325	803.3
1.01325	822.31
