Adsorption isotherm of Methylene blue on 2-OA
DOI: 10.1039/c7sm01977g
Article source: Figure 9
Adsorbate Methylene blue: InChIKey CXKWCBBOMKCUKX-UHFFFAOYSA-M
Kind: experiment
Temperature: 298 K
Tabular data in the source: 0
pressure (bar)	uptake (mg/g)
1.01325	20.35
1.01325	62.95
1.01325	113.32
1.01325	113.5
