Adsorption isotherm of Hydrogen on SBF-Cu
DOI: 10.1039/C1jm12859k
Adsorbate Hydrogen: InChIKey UFHFLCQGNIYNRP-UHFFFAOYSA-N
Temperature: 77 K
Tabular data in the source: 0
pressure (bar)	uptake (cm3(STP)/g)
0.00443435	14.7249
0.00886871	26.0518
0.0133031	37.3786
0.0243889	47.5728
0.0332577	56.6343
0.0465607	65.6958
0.0598638	74.7573
0.075384	83.8188
0.0886871	91.7476
0.106425	98.5437
0.124162	105.34
0.141899	112.136
0.161854	117.799
0.179591	123.463
0.199546	129.126
0.219501	133.657
0.241672	138.188
0.261627	142.718
0.281582	147.249
0.301536	150.647
0.323708	154.045
0.343662	157.443
0.365834	159.709
0.385789	163.107
0.407961	165.372
0.427915	168.77
0.450087	171.036
0.470042	173.301
0.492213	175.566
0.512168	177.832
0.53434	180.097
0.554294	182.362
0.576466	184.628
0.596421	186.893
0.618592	188.026
0.640764	189.159
0.660719	190.291
0.682891	191.424
0.705062	193.689
0.727234	194.822
0.747189	197.087
0.769361	198.22
0.791532	199.353
0.811487	201.618
0.833659	202.751
0.85583	203.883
0.875785	205.016
0.897957	206.149
0.920129	207.282
0.9423	208.414
0.962255	209.547
0.984427	210.68
1.0066	211.812
