Adsorption isotherm of Nitrogen on SBF-Cu
DOI: 10.1039/C1jm12859k
Adsorbate Nitrogen: InChIKey IJGRMHOSHXDMSA-UHFFFAOYSA-N
Temperature: 77 K
Tabular data in the source: 0
pressure (bar)	uptake (cm3(STP)/g)
0.00443435	0.00443435
0.00665153	280.906
0.0133031	294.498
0.0288233	302.427
0.0487779	305.825
0.0687325	309.223
0.0909043	311.489
0.110859	314.887
0.130813	317.152
0.152985	318.285
0.17294	320.55
0.195112	321.683
0.217283	322.816
0.239455	323.948
0.261627	323.948
0.281582	325.081
0.303753	325.081
0.325925	326.214
0.348097	326.214
0.370269	326.214
0.39244	327.346
0.414612	327.346
0.436784	327.346
0.458956	328.479
0.481127	328.479
0.503299	328.479
0.525471	328.479
0.547643	328.479
0.569815	328.479
0.591986	328.479
0.614158	328.479
0.63633	328.479
0.658502	328.479
0.678456	329.612
0.700628	329.612
0.7228	329.612
0.744972	329.612
0.767143	329.612
0.789315	329.612
0.811487	329.612
0.833659	329.612
0.85583	329.612
0.878002	329.612
0.900174	330.744
0.922346	330.744
0.944518	330.744
0.966689	331.877
0.986644	334.142
1.0066	339.806
