Adsorption isotherm of Phenol, Water on Granular Activated Carbon
DOI: 10.1007/s11356-017-9636-7
Article source: Figure 1
Adsorbate Phenol: InChIKey ISWSIDIOOBJBQZ-UHFFFAOYSA-N
Adsorbate Water: InChIKey XLYOFNOQVPJJNP-UHFFFAOYSA-N
Kind: experiment
Temperature: 298 K
Tabular data in the source: 0
pressure (bar)	Phenol fraction	Phenol uptake (mg/g)	Water fraction	Water uptake (mg/g)	total uptake (mg/g)
1.01325	0.664	0.708			
1.01325	2.684	48.584			
1.01325	9.069	91.807			
1.01325	50.335	150.648			
1.01325	119.493	181.13			
1.01325	201.914	199.154			
1.01325	381.96	219.079			
1.01325	383.578	216.881			
