Adsorption isotherm of 4-Chlorophenol, Water on Granular Activated Carbon
DOI: 10.1007/s11356-017-9636-7
Article source: Figure 1
Adsorbate 4-Chlorophenol: InChIKey WXNZTHHGJRFXKQ-UHFFFAOYSA-N
Adsorbate Water: InChIKey XLYOFNOQVPJJNP-UHFFFAOYSA-N
Kind: experiment
Temperature: 298 K
Tabular data in the source: 0
pressure (bar)	4-Chlorophenol fraction	4-Chlorophenol uptake (mg/g)	Water fraction	Water uptake (mg/g)	total uptake (mg/g)
1.01325	0.472	0.49			
1.01325	0.911	96.712			
1.01325	1.145	47.638			
1.01325	15.077	182.524			
1.01325	74.531	222.167			
1.01325	141.424	256.68			
1.01325	218.345	280.201			
1.01325	328.262	270.744			
