Adsorption isotherm of Ethanol on [{Zn(L)(H2O)2}(NO3)2*2H2O]n
DOI: 10.1002/anie.201206724
Adsorbate Ethanol: InChIKey LFQSCWFLJHTTHZ-UHFFFAOYSA-N
Temperature: 298 K
Tabular data in the source: 0
pressure (bar)	uptake (cm3(STP)/g)
0.00220983	2.04748
0.0168441	10.0878
0.0223535	11.8357
0.0283794	16.0307
0.0356104	17.7786
0.0437023	23.7214
0.0507612	28.266
0.0552376	33.1601
0.0624687	38.4038
0.0703884	43.6475
0.0748648	47.8424
0.0755534	48.8912
