Adsorption isotherm of Benzene on [{Zn(L)(H2O)2}(NO3)2*2H2O]n
DOI: 10.1002/anie.201206724
Adsorbate Benzene: InChIKey UHOVQNZJYSORNB-UHFFFAOYSA-N
Temperature: 298 K
Tabular data in the source: 0
pressure (bar)	uptake (cm3(STP)/g)
0.00546098	0.998742
0.0228059	1.6979
0.0415274	2.74664
0.0621761	2.74664
0.0740147	3.4458
0.0869545	3.09622
0.0987931	3.79538
0.118891	4.84412
0.125223	5.54328
