Adsorption isotherm of Methanol on [{Zn(L)(H2O)2}(NO3)2*2H2O]n
DOI: 10.1002/anie.201206724
Adsorbate Methanol: InChIKey OKKJLVBELUTLKV-UHFFFAOYSA-N
Temperature: 298 K
Tabular data in the source: 0
pressure (bar)	uptake (cm3(STP)/g)
0.00325254	2.74664
0.00730197	5.54328
0.0172415	8.6895
0.0293897	12.1853
0.0437468	15.6811
0.0540544	20.2256
0.0669389	25.4693
0.0750378	30.713
0.0868179	32.4609
0.101543	37.355
0.111483	41.2004
0.122158	46.0945
0.12768	52.387
0.14351	73.0122
0.145719	61.4761
0.165229	91.8895
