Adsorption isotherm of Cyclohexane on [{Zn(L)(H2O)2}(NO3)2*2H2O]n
DOI: 10.1002/anie.201206724
Adsorbate Cyclohexane: InChIKey XDTMQSROBMDMFD-UHFFFAOYSA-N
Temperature: 298 K
Tabular data in the source: 0
pressure (bar)	uptake (cm3(STP)/g)
0.00355954	0.0499976
0.019367	0.998742
0.0393343	0.649162
0.067344	0.649162
0.0803783	0.998742
0.0867567	1.6979
0.098959	0.998742
0.112548	1.34832
0.119204	1.34832
0.12475	1.6979
