Adsorption isotherm of Acetonitrile on [{Zn(L)(H2O)2}(NO3)2*2H2O]n
DOI: 10.1002/anie.201206724
Adsorbate Acetonitrile: InChIKey WEVYAHXRMPXWCK-UHFFFAOYSA-N
Temperature: 298 K
Tabular data in the source: 0
pressure (bar)	uptake (cm3(STP)/g)
0.00200997	2.39706
0.0145797	7.99034
0.0263799	14.2828
0.0343322	16.7298
0.0407454	21.9735
0.0453629	25.1198
0.0507499	30.0139
0.0540848	33.8592
0.0584457	39.1029
0.065885	45.745
0.0684502	51.3382
0.0702459	56.9315
0.0702459	62.1752
0.076146	66.3702
0.0794808	69.1668
0.0805069	70.9147
0.0828157	76.8576
0.0897419	83.15
0.0948724	95.0357
0.0984638	102.027
0.0989768	109.019
0.102312	118.458
0.102825	112.864
0.105133	123.002
0.105903	132.79
0.112316	141.879
0.114625	153.066
0.114881	157.611
