Adsorption isotherm of Acetone on [{Zn(L)(H2O)2}(NO3)2*2H2O]n
DOI: 10.1002/anie.201206724
Adsorbate Acetone: InChIKey CSCPPACGZOOCGX-UHFFFAOYSA-N
Temperature: 298 K
Tabular data in the source: 0
pressure (bar)	uptake (cm3(STP)/g)
0.00455945	0.998742
0.0399127	5.1937
0.060591	6.9416
0.0792682	7.99034
0.092609	10.4374
0.109952	16.7298
0.121959	20.2256
0.124627	24.4206
0.133299	27.2172
0.153977	43.6475
0.167985	49.5903
0.168652	54.1349
0.183327	63.9231
0.198002	75.1097
0.21868	85.9466
0.22535	90.8408
0.227351	95.3853
0.238024	100.979
0.244028	111.466
0.261371	120.555
0.275379	129.994
0.290053	139.083
0.296057	149.221
0.302727	157.261
