Adsorption isotherm of Water on [{Zn(L)(H2O)2}(NO3)2*2H2O]n
DOI: 10.1002/anie.201206724
Adsorbate Water: InChIKey XLYOFNOQVPJJNP-UHFFFAOYSA-N
Temperature: 298 K
Tabular data in the source: 0
pressure (bar)	uptake (cm3(STP)/g)
5.73e-05	2.74664
0.0039013	8.6895
0.00692156	13.234
0.00891218	18.8273
0.0105596	24.7702
0.0116579	30.3634
0.0124129	34.5584
0.0133053	46.7937
0.0137171	52.7366
0.0142663	58.3298
0.0148841	60.7769
0.0148841	63.9231
0.0163255	67.0693
0.0175611	69.1668
0.0203754	79.6542
0.0221601	89.0929
0.023533	97.1332
0.0245626	102.027
0.0255236	107.271
0.0277888	118.108
0.0282693	124.4
0.0295735	132.79
0.0309463	141.879
