Adsorption isotherm of Nitrogen on MIL-100(Fe)
DOI: 10.1016/j.jiec.2009.09.043
Adsorbate Nitrogen: InChIKey IJGRMHOSHXDMSA-UHFFFAOYSA-N
Temperature: 77 K
Tabular data in the source: 0
pressure (bar)	uptake (ml/g)
0.00976005	311.698
0.0122951	338.113
0.0225817	364.528
0.0303039	380.377
0.0405808	412.075
0.0508966	422.642
0.0611734	454.34
0.0740828	459.623
0.0921306	480.755
0.102437	496.604
0.117901	517.736
0.161748	560
0.236659	570.566
0.265072	575.849
0.301245	575.849
0.327074	581.132
0.360664	581.132
0.404589	581.132
0.440753	586.415
0.484668	591.698
0.523435	586.415
0.603524	591.698
0.644856	596.981
0.688781	596.981
0.724954	596.981
0.766296	596.981
0.807647	591.698
0.846394	596.981
0.887736	596.981
0.926483	602.264
0.957431	633.962
