Adsorption isotherm of Methane on MIL-100(Cr)
DOI: 10.1016/j.jiec.2009.09.043
Adsorbate Methane: InChIKey VNWKTOKETHGBQD-UHFFFAOYSA-N
Temperature: 298 K
Tabular data in the source: 0
pressure (bar)	uptake (ml/g)
0.896861	6.79155
2.69058	18.4392
4.82063	33.9643
7.73543	47.5691
10.6502	61.1739
12.1076	67.0085
14.3498	74.7939
16.9283	87.4244
20.0673	96.1949
22.5336	103.985
25.2242	114.682
27.5785	122.469
29.9327	130.257
32.1749	135.139
34.7534	140.027
37.1076	145.88
39.9103	152.708
42.4888	160.5
45.1794	165.391
47.5336	168.339
