Adsorption isotherm of Nitrogen on MIL-101
DOI: 10.1016/j.jiec.2009.09.043
Adsorbate Nitrogen: InChIKey IJGRMHOSHXDMSA-UHFFFAOYSA-N
Temperature: 77 K
Tabular data in the source: 0
pressure (bar)	uptake (ml/g)
0.00435838	438.491
0.0120124	491.321
0.0196469	554.717
0.0299042	596.981
0.0375679	644.528
0.0504286	676.226
0.0581215	707.925
0.0683984	739.623
0.0812785	760.755
0.0889715	792.453
0.0966937	808.302
0.112138	840
0.135256	913.962
0.148	1009.06
0.171176	1051.32
0.202114	1088.3
0.227865	1135.85
0.232954	1178.11
0.276753	1246.79
0.323232	1262.64
0.423972	1278.49
0.465314	1278.49
0.483391	1283.77
0.519564	1283.77
0.560896	1289.06
0.602227	1294.34
0.646152	1294.34
0.679732	1299.62
0.726232	1304.91
0.764989	1304.91
0.806321	1310.19
0.847652	1315.47
0.881242	1315.47
0.922564	1326.04
