Adsorption isotherm of Nitrogen on MIL-100(Cr)
DOI: 10.1016/j.jiec.2009.09.043
Adsorbate Nitrogen: InChIKey IJGRMHOSHXDMSA-UHFFFAOYSA-N
Temperature: 77 K
Tabular data in the source: 0
pressure (bar)	uptake (ml/g)
0.00728347	253.585
0.00979905	290.566
0.0226695	316.981
0.0303819	338.113
0.0432426	369.811
0.0638547	401.509
0.074151	422.642
0.0870312	443.774
0.102515	454.34
0.115405	470.189
0.169616	496.604
0.229015	512.453
0.272921	523.019
0.311668	528.302
0.340081	533.585
0.363325	538.868
0.402063	549.434
0.445989	549.434
0.484736	554.717
0.526058	565.283
0.564815	565.283
0.603563	570.566
0.644895	575.849
0.686236	575.849
0.724993	575.849
0.766344	570.566
0.807676	575.849
0.849007	581.132
0.887755	586.415
0.93168	586.415
0.960083	596.981
