Adsorption isotherm of Methane on HY
DOI: 10.1016/j.jiec.2009.09.043
Adsorbate Methane: InChIKey VNWKTOKETHGBQD-UHFFFAOYSA-N
Temperature: 298 K
Tabular data in the source: 0
pressure (bar)	uptake (ml/g)
2.42826	10.1134
3.53201	13.4874
4.63576	18.3028
6.51214	25.0476
8.71965	31.7955
11.1479	38.0651
13.6865	43.3748
16.9978	49.6528
24.9448	60.7803
29.6909	65.6307
34.8786	69.5244
40.1766	72.4582
45.0331	74.9072
49.8896	75.9149
