Adsorption isotherm of Methane on MIL-100(Fe)
DOI: 10.1016/j.jiec.2009.09.043
Adsorbate Methane: InChIKey VNWKTOKETHGBQD-UHFFFAOYSA-N
Temperature: 298 K
Tabular data in the source: 0
pressure (bar)	uptake (ml/g)
2.46637	10.6929
3.36323	14.5812
4.3722	21.3749
6.83857	34.0033
9.64126	46.6382
12.6682	59.2774
15.8072	70.9511
17.9372	78.7343
20.2915	87.4895
22.1973	94.3006
24.6637	102.09
27.13	106.977
29.7085	114.769
32.1749	119.655
34.8655	124.546
37.3318	131.368
40.0224	138.194
42.3767	143.078
44.9552	151.838
47.4215	155.757
