Adsorption isotherm of Methane on Carbon
DOI: 10.1016/j.jiec.2009.09.043
Adsorbate Methane: InChIKey VNWKTOKETHGBQD-UHFFFAOYSA-N
Temperature: 298 K
Tabular data in the source: 0
pressure (bar)	uptake (ml/g)
2.75938	23.0896
3.64238	30.3053
4.85651	38.4851
6.62252	49.0726
8.83002	60.1449
11.2583	71.2193
13.9073	80.3739
16.9978	91.9351
20.9713	102.544
25.0552	111.712
29.5806	120.404
34.989	129.105
40.3974	136.845
45.4746	143.14
49.6689	147.024
