Adsorption isotherm of Methane on H-ZSM-5
DOI: 10.1016/j.jiec.2009.09.043
Adsorbate Methane: InChIKey VNWKTOKETHGBQD-UHFFFAOYSA-N
Temperature: 298 K
Tabular data in the source: 0
pressure (bar)	uptake (ml/g)
2.75938	27.8944
3.53201	32.7066
4.85651	37.0437
6.62252	41.385
8.83002	45.25
11.1479	48.1552
13.7969	51.0635
16.777	53.4946
20.9713	55.4568
24.9448	58.3778
29.5806	60.3443
34.8786	61.3562
40.3974	61.8897
45.4746	63.3799
48.6755	63.8912
49.8896	63.9028
