Adsorption isotherm of Methane on MIL-101
DOI: 10.1016/j.jiec.2009.09.043
Adsorbate Methane: InChIKey VNWKTOKETHGBQD-UHFFFAOYSA-N
Temperature: 298 K
Tabular data in the source: 0
pressure (bar)	uptake (ml/g)
2.57848	23.2757
4.82063	42.6739
7.62332	64.0185
10.6502	87.3029
13.2287	107.675
15.2466	121.263
17.2646	135.818
19.6188	148.444
22.0852	161.073
24.8879	179.514
27.3543	196.013
30.0448	204.775
32.3991	214.498
34.8655	224.223
37.2197	236.849
39.7982	245.609
43.722	257.298
47.3094	269.948
49.8879	280.643
