Adsorption isotherm of Carbon Dioxide on Soc-MOF
DOI: 10.1002/Aic.11865
Adsorbate Carbon Dioxide: InChIKey CURLTUGMZLYLDI-UHFFFAOYSA-N
Temperature: 298 K
Tabular data in the source: 0
pressure (bar)	uptake (mmol/g)
0.251391	0.215363
0.316938	0.739732
1.10349	2.53133
2.08669	4.41032
3.06988	5.39351
4.97072	6.39856
10.0833	7.60024
15.1959	8.1683
20.243	8.51788
24.9623	8.91116
30.206	9.17335
