Adsorption isotherm of Hydrogen on Soc-MOF
DOI: 10.1002/Aic.11865
Adsorbate Hydrogen: InChIKey UFHFLCQGNIYNRP-UHFFFAOYSA-N
Temperature: 78 K
Tabular data in the source: 0
pressure (bar)	uptake (wt%)
0.00743381	0.0842726
0.0520052	0.405449
0.0991985	0.713516
0.201451	1.17234
0.298459	1.50007
0.403333	1.74915
0.500341	1.95234
0.607837	2.13587
0.801854	2.39805
1.00111	2.58158
1.203	2.73234
