Adsorption isotherm of Hydrogen on Soc-MOF
DOI: 10.1002/Aic.11865
Adsorbate Hydrogen: InChIKey UFHFLCQGNIYNRP-UHFFFAOYSA-N
Temperature: 78 K
Tabular data in the source: 0
pressure (bar)	uptake (wt%)
0.00743381	0.195701
0.0257867	0.39234
0.0624926	0.641415
0.120173	1.00847
0.190963	1.3231
0.301081	1.65738
0.41382	1.91301
0.657652	2.27352
0.780879	2.3915
1.01685	2.50948
1.21611	2.58158
