Adsorption isotherm of Hydrogen on Soc-MOF
DOI: 10.1002/Aic.11865
Adsorbate Hydrogen: InChIKey UFHFLCQGNIYNRP-UHFFFAOYSA-N
Temperature: 298 K
Tabular data in the source: 0
pressure (bar)	uptake (mmol/g)
0.316938	0.0405726
2.02114	0.0624214
3.13543	0.0624214
4.97072	0.0624214
10.1489	0.0842701
15.1959	0.106119
20.1774	0.127968
25.0934	0.171665
30.1405	0.127968
