Adsorption isotherm of N-Pentane on MIL-47
DOI: 10.1021/Jp2039527
Adsorbate N-Pentane: InChIKey OFBQJSOFQDEBGM-UHFFFAOYSA-N
Temperature: 303 K
Tabular data in the source: 0
pressure (bar)	uptake (molecules/unitcell)
0.00702701	2.89584
0.0140693	3.01978
0.0239284	3.21133
0.0366045	3.31274
0.0577312	3.43668
0.0985763	3.58316
0.138013	3.66203
0.180266	3.71274
0.263365	3.79161
0.350689	3.84231
0.508435	3.90992
0.64083	3.92682
0.764773	3.94936
0.873224	4.00006
