Adsorption isotherm of N-Nonane on MIL-47
DOI: 10.1021/Jp2039527
Adsorbate N-Nonane: InChIKey BKIMMITUMNQMOS-UHFFFAOYSA-N
Temperature: 303 K
Tabular data in the source: 0
pressure (bar)	uptake (molecules/unitcell)
1.52e-05	1.48175
0.00139321	0.433864
0.0014237	1.13809
0.00280166	2.00006
0.0295622	2.07893
0.0619566	2.0902
0.0957594	2.0902
0.126745	2.124
0.250689	2.17471
0.370407	2.20288
0.516886	2.21415
0.643647	2.23668
0.76759	2.29302
0.898576	2.30992
