Adsorption isotherm of N-Heptane on MIL-47
DOI: 10.1021/Jp2039527
Adsorbate N-Heptane: InChIKey IMNFDUFMRHMDMM-UHFFFAOYSA-N
Temperature: 303 K
Tabular data in the source: 0
pressure (bar)	uptake (molecules/unitcell)
0.00139321	1.89302
0.00283215	1.30147
0.0267453	2.61978
0.0577312	2.64231
0.0929425	2.76626
0.130971	2.76626
0.325337	2.9071
0.652097	2.98034
0.974633	2.99161
