Adsorption isotherm of N-Heptane on MIL-47
DOI: 10.1021/Jp2039527
Adsorbate N-Heptane: InChIKey IMNFDUFMRHMDMM-UHFFFAOYSA-N
Temperature: 303 K
Tabular data in the source: 0
pressure (bar)	uptake (molecules/unitcell)
0.0116906	2.32905
0.0188142	2.42594
0.0330614	2.57411
0.0487334	2.63679
0.0857761	2.69948
0.121394	2.73368
0.158437	2.77357
0.27384	2.81346
0.407763	2.83626
0.526015	2.84765
0.601526	2.85905
0.845153	2.90464
