Adsorption isotherm of N-Heptane on MIL-47
DOI: 10.1021/Jp2039527
Adsorbate N-Heptane: InChIKey IMNFDUFMRHMDMM-UHFFFAOYSA-N
Temperature: 303 K
Tabular data in the source: 0
pressure (bar)	uptake (molecules/unitcell)
0.00456697	2.12959
0.00599169	2.6026
0.00884113	2.90464
0.0216636	3.00722
0.0387603	3.06421
0.125668	3.32636
0.204028	3.38905
0.285237	3.49733
0.403489	3.54292
0.887895	3.617
