Adsorption isotherm of N-Octane on MIL-47
DOI: 10.1021/Jp2039527
Adsorbate N-Octane: InChIKey TVMXDCGIABBOFY-UHFFFAOYSA-N
Temperature: 303 K
Tabular data in the source: 0
pressure (bar)	uptake (molecules/unitcell)
1.52e-05	1.23386
0.00139321	2.00569
0.00280166	1.65077
0.0267453	2.45077
0.102802	2.51274
0.202802	2.52964
0.307027	2.55217
0.412661	2.55781
