Adsorption isotherm of N-Hexane on MIL-47
DOI: 10.1021/Jp2039527
Adsorbate N-Hexane: InChIKey VLKZOEOYAKHREP-UHFFFAOYSA-N
Temperature: 303 K
Tabular data in the source: 0
pressure (bar)	uptake (molecules/unitcell)
0.00280166	2.23105
0.00702701	2.84513
0.0239284	2.90147
0.0337876	2.95781
0.0999848	3.08738
0.197168	3.15499
0.30421	3.21133
0.65914	3.3071
