Adsorption isotherm of N-Pentane on MIL-47
DOI: 10.1021/Jp2039527
Adsorbate N-Pentane: InChIKey OFBQJSOFQDEBGM-UHFFFAOYSA-N
Temperature: 303 K
Tabular data in the source: 0
pressure (bar)	uptake (molecules/unitcell)
0.000293	2.46013
0.00456697	3.09271
0.00599169	2.91604
0.0116906	3.31496
0.0373356	3.6569
0.0615559	3.75378
0.0857761	3.78227
0.122819	3.85066
0.611499	3.95894
0.860825	3.97033
