Adsorption isotherm of N-Octane on MIL-47
DOI: 10.1021/Jp2039527
Adsorbate N-Octane: InChIKey TVMXDCGIABBOFY-UHFFFAOYSA-N
Temperature: 303 K
Tabular data in the source: 0
pressure (bar)	uptake (molecules/unitcell)
0.00741641	2.05551
0.00884113	1.82755
0.0173895	2.15809
0.0330614	2.24357
0.0615559	2.32905
0.100023	2.37465
0.155588	2.42024
0.205453	2.44303
0.302334	2.48292
0.403489	2.51142
0.506069	2.52852
0.595827	2.53991
0.812385	2.55131
0.967679	2.57981
