Adsorption isotherm of N-Hexane on MIL-47
DOI: 10.1021/Jp2039527
Adsorbate N-Hexane: InChIKey VLKZOEOYAKHREP-UHFFFAOYSA-N
Temperature: 303 K
Tabular data in the source: 0
pressure (bar)	uptake (molecules/unitcell)
0.00843546	2.56908
0.0267453	2.72682
0.0492805	2.79443
0.0929425	2.93527
0.143647	3.02541
0.174633	3.08738
0.256323	3.19443
0.357731	3.2564
0.402802	3.29584
0.501393	3.32964
0.653506	3.39724
0.805619	3.42541
0.949281	3.47612
