Adsorption isotherm of N-Octane on MIL-47
DOI: 10.1021/Jp2039527
Adsorbate N-Octane: InChIKey TVMXDCGIABBOFY-UHFFFAOYSA-N
Temperature: 303 K
Tabular data in the source: 0
pressure (bar)	uptake (molecules/unitcell)
0.00171752	2.32905
0.00456697	1.40583
0.0615559	2.85905
0.0900503	2.85905
0.131367	2.85335
0.393516	2.94453
0.649966	2.96163
0.906416	2.97303
0.973378	2.98443
