Adsorption isotherm of N-Octane on MIL-47
DOI: 10.1021/Jp2039527
Adsorbate N-Octane: InChIKey TVMXDCGIABBOFY-UHFFFAOYSA-N
Temperature: 303 K
Tabular data in the source: 0
pressure (bar)	uptake (molecules/unitcell)
0.00139321	2.06767
0.00280166	1.84231
0.0197031	2.15781
0.0309707	2.24231
0.0605481	2.31555
0.0971678	2.38316
0.152097	2.41133
0.20421	2.4226
0.305619	2.47893
0.405619	2.524
0.505619	2.53527
0.592942	2.51837
0.816886	2.54654
0.974633	2.57471
