Adsorption isotherm of N-Pentane on MIL-47
DOI: 10.1021/Jp2039527
Adsorbate N-Pentane: InChIKey OFBQJSOFQDEBGM-UHFFFAOYSA-N
Temperature: 303 K
Tabular data in the source: 0
pressure (bar)	uptake (molecules/unitcell)
0.0116906	2.95023
0.0316367	3.22948
0.0416097	3.32066
0.0615559	3.43464
0.100023	3.58281
0.14419	3.67399
0.225399	3.75948
0.300909	3.82216
0.409188	3.86775
0.506069	3.90195
0.63287	3.92474
0.758245	3.94184
0.866524	3.98173
