Adsorption isotherm of N-Heptane on MIL-47
DOI: 10.1021/Jp2039527
Adsorbate N-Heptane: InChIKey IMNFDUFMRHMDMM-UHFFFAOYSA-N
Temperature: 303 K
Tabular data in the source: 0
pressure (bar)	uptake (molecules/unitcell)
0.00702701	2.05077
0.00984391	2.29865
0.0112524	2.42823
0.0295622	2.56908
0.0478721	2.63105
0.0760411	2.67048
0.116886	2.73809
0.154914	2.77189
0.271816	2.80569
0.405619	2.8226
0.525337	2.8564
0.595759	2.86203
0.846464	2.86767
