Adsorption isotherm of N-Heptane on MIL-47
DOI: 10.1021/Jp2039527
Adsorbate N-Heptane: InChIKey IMNFDUFMRHMDMM-UHFFFAOYSA-N
Temperature: 303 K
Tabular data in the source: 0
pressure (bar)	uptake (molecules/unitcell)
0.00314224	2.33475
0.0230884	2.64249
0.0373356	2.77927
0.0900503	2.91604
0.147039	3.02432
0.179808	3.08701
0.221125	3.144
0.262442	3.18389
0.302334	3.21808
0.355049	3.26367
0.407763	3.28647
0.50322	3.34346
0.658515	3.38905
0.80811	3.44034
0.944884	3.46313
