Adsorption isotherm of N-Pentane on MIL-47
DOI: 10.1021/Jp2039527
Adsorbate N-Pentane: InChIKey OFBQJSOFQDEBGM-UHFFFAOYSA-N
Temperature: 303 K
Tabular data in the source: 0
pressure (bar)	uptake (molecules/unitcell)
0.0154777	3.04231
0.0394214	3.24513
0.0844918	3.43668
0.214069	3.70147
0.435196	3.84795
0.868999	3.94936
