Adsorption isotherm of N-Nonane on MIL-47
DOI: 10.1021/Jp2039527
Adsorbate N-Nonane: InChIKey BKIMMITUMNQMOS-UHFFFAOYSA-N
Temperature: 303 K
Tabular data in the source: 0
pressure (bar)	uptake (molecules/unitcell)
0.00171752	0.0437993
0.00314224	0.915729
0.00314224	1.31465
0.00456697	0.419926
0.0116906	2.01562
0.128518	2.22647
0.383543	2.26637
0.641418	2.29486
0.893594	2.36325
