Adsorption isotherm of N-Nonane on MIL-47
DOI: 10.1021/Jp2039527
Adsorbate N-Nonane: InChIKey BKIMMITUMNQMOS-UHFFFAOYSA-N
Temperature: 303 K
Tabular data in the source: 0
pressure (bar)	uptake (molecules/unitcell)
0.0126608	1.54936
0.0478721	1.73527
0.0999848	1.80288
0.174633	1.81978
0.256323	1.83105
0.34083	1.85922
0.515478	1.88738
0.688717	1.87612
0.860548	1.88738
