Adsorption isotherm of N-Octane on MIL-47
DOI: 10.1021/Jp2039527
Adsorbate N-Octane: InChIKey TVMXDCGIABBOFY-UHFFFAOYSA-N
Temperature: 303 K
Tabular data in the source: 0
pressure (bar)	uptake (molecules/unitcell)
0.00171752	2.02701
0.00314224	1.40014
0.00599169	2.32336
0.0430345	2.48862
0.122819	2.50002
0.205453	2.56271
0.289511	2.56841
0.413462	2.56271
0.615773	2.5912
0.825207	2.5855
0.906416	2.6083
