Adsorption isotherm of N-Nonane on MIL-47
DOI: 10.1021/Jp2039527
Adsorbate N-Nonane: InChIKey BKIMMITUMNQMOS-UHFFFAOYSA-N
Temperature: 303 K
Tabular data in the source: 0
pressure (bar)	uptake (molecules/unitcell)
0.0202389	1.51411
0.0202389	1.5768
0.0515828	1.74777
0.105722	1.79336
0.174109	1.82755
0.259592	1.84465
0.345076	1.85605
0.517467	1.88454
0.691283	1.89024
0.860825	1.88454
