Adsorption isotherm of Chlorobenzene, Carbon Tetrachloride on U-02 activated carbon
DOI: 10.1177/026361749601300610
Article source: Table 2
Adsorbate Chlorobenzene: InChIKey MVPPADPHJFYWMZ-UHFFFAOYSA-N
Adsorbate Carbon Tetrachloride: InChIKey VZGDMQKNWNREIO-UHFFFAOYSA-N
Kind: experiment
Temperature: 298 K
Tabular data in the source: 0
pressure (bar)	Chlorobenzene fraction	Chlorobenzene uptake (mmol/g)	Carbon Tetrachloride fraction	Carbon Tetrachloride uptake (mmol/g)	total uptake (mmol/g)
0.002191	0.018	0.96	0.982	1.723	
0.001763	0.019	1.04	0.981	1.549	
