Adsorption isotherm of Chlorobenzene, Carbon Tetrachloride on U-02 activated carbon
DOI: 10.1177/026361749601300610
Article source: Table 2
Adsorbate Chlorobenzene: InChIKey MVPPADPHJFYWMZ-UHFFFAOYSA-N
Adsorbate Carbon Tetrachloride: InChIKey VZGDMQKNWNREIO-UHFFFAOYSA-N
Kind: experiment
Temperature: 298 K
Tabular data in the source: 0
pressure (bar)	Chlorobenzene fraction	Chlorobenzene uptake (mmol/g)	Carbon Tetrachloride fraction	Carbon Tetrachloride uptake (mmol/g)	total uptake (mmol/g)
0.001061	0.32	2.934	0.68	0.285	
0.001122	0.355	3.202	0.645	0.271	
0.000169	0.364	2.185	0.636	0.276	
0.001608	0.364	3.372	0.636	0.247	
0.004562	0.371	3.588	0.629	0.283	
