Adsorption isotherm of Chlorobenzene, Carbon Tetrachloride on U-02 activated carbon
DOI: 10.1177/026361749601300610
Article source: Table 2
Adsorbate Chlorobenzene: InChIKey MVPPADPHJFYWMZ-UHFFFAOYSA-N
Adsorbate Carbon Tetrachloride: InChIKey VZGDMQKNWNREIO-UHFFFAOYSA-N
Kind: experiment
Temperature: 298 K
Tabular data in the source: 0
pressure (bar)	Chlorobenzene fraction	Chlorobenzene uptake (mmol/g)	Carbon Tetrachloride fraction	Carbon Tetrachloride uptake (mmol/g)	total uptake (mmol/g)
0.001418	0.142	2.391	0.858	0.607	
0.000332	0.149	1.795	0.851	0.675	
6.4e-05	0.159	1.646	0.841	0.254	
