Adsorption isotherm of Chlorobenzene, Carbon Tetrachloride on U-02 activated carbon
DOI: 10.1177/026361749601300610
Article source: Table 2
Adsorbate Chlorobenzene: InChIKey MVPPADPHJFYWMZ-UHFFFAOYSA-N
Adsorbate Carbon Tetrachloride: InChIKey VZGDMQKNWNREIO-UHFFFAOYSA-N
Kind: experiment
Temperature: 298 K
Tabular data in the source: 0
pressure (bar)	Chlorobenzene fraction	Chlorobenzene uptake (mmol/g)	Carbon Tetrachloride fraction	Carbon Tetrachloride uptake (mmol/g)	total uptake (mmol/g)
0.000231	0.621	2.915	0.379	0.085	
