Adsorption isotherm of Carbon Dioxide on COF-103
DOI: 10.1039/B805473h
Adsorbate Carbon Dioxide: InChIKey CURLTUGMZLYLDI-UHFFFAOYSA-N
Temperature: 300 K
Tabular data in the source: 0
pressure (bar)	uptake (mmol/g)
3.09585	19.2313
5.13507	29.2817
10.1603	36.5646
15.1127	38.3125
20.1379	39.6234
25.2359	40.2061
30.1883	39.6234
35.1407	39.9147
40.093	39.7691
45.1183	39.6234
50.0706	38.7495
