Adsorption isotherm of Carbon Dioxide on COF-8
DOI: 10.1039/B805473h
Adsorbate Carbon Dioxide: InChIKey CURLTUGMZLYLDI-UHFFFAOYSA-N
Temperature: 300 K
Tabular data in the source: 0
pressure (bar)	uptake (mmol/cm3)
0.182685	1.39919
0.983806	4.45802
4.84375	9.38127
10.0874	11.1583
20.065	11.8866
30.1155	12.0322
35.0678	11.9449
40.093	11.974
45.1911	11.9157
49.925	11.4205
