Adsorption isotherm of Carbon Dioxide on COF-105
DOI: 10.1039/B805473h
Adsorbate Carbon Dioxide: InChIKey CURLTUGMZLYLDI-UHFFFAOYSA-N
Temperature: 300 K
Tabular data in the source: 0
pressure (bar)	uptake (mmol/g)
3.09585	14.8615
5.28072	21.1248
10.0874	40.643
15.1669	62.0192
20.1921	84.9604
25.2173	93.4814
30.1333	96.7587
40.2929	98.7251
45.0997	98.9435
50.2341	98.9435
