Adsorption isotherm of Carbon Dioxide on COF-6
DOI: 10.1039/B805473h
Adsorbate Carbon Dioxide: InChIKey CURLTUGMZLYLDI-UHFFFAOYSA-N
Temperature: 300 K
Tabular data in the source: 0
pressure (bar)	uptake (mmol/cm3)
0.0370268	0.525245
0.255514	3.6132
0.255514	5.82721
0.983806	7.48771
2.95019	8.47819
9.94179	9.03169
15.1855	9.14821
25.0902	9.38127
30.1883	9.23561
40.093	9.00256
50.0706	8.62385
