Adsorption isotherm of Carbon Dioxide on COF-NT
DOI: 10.1039/B805473h
Adsorbate Carbon Dioxide: InChIKey CURLTUGMZLYLDI-UHFFFAOYSA-N
Temperature: 300 K
Tabular data in the source: 0
pressure (bar)	uptake (mmol/g)
0.401172	1.3153
1.12946	4.37413
3.31434	12.094
5.2079	18.7943
10.1603	24.6206
15.1127	26.8055
20.1379	27.2425
25.1631	27.5338
30.0426	27.9708
35.1407	27.9708
40.1659	27.9708
45.1911	27.5338
49.9978	26.3685
