Adsorption isotherm of Carbon Dioxide on COF-NT
DOI: 10.1039/B805473h
Adsorbate Carbon Dioxide: InChIKey CURLTUGMZLYLDI-UHFFFAOYSA-N
Temperature: 300 K
Tabular data in the source: 0
pressure (bar)	uptake (mmol/cm3)
0.182685	0.117402
0.983806	1.8653
2.95019	5.62328
4.91658	8.8569
10.1603	12.1196
14.967	12.9936
19.9194	13.314
25.2359	13.3723
30.0426	13.4888
35.1407	13.4888
40.1659	13.4597
44.9726	13.2558
49.925	12.8479
