Adsorption isotherm of Carbon Dioxide on COF-105
DOI: 10.1039/B805473h
Adsorbate Carbon Dioxide: InChIKey CURLTUGMZLYLDI-UHFFFAOYSA-N
Temperature: 300 K
Tabular data in the source: 0
pressure (bar)	uptake (mmol/cm3)
1.07445	0.911397
3.04083	2.35341
5.00722	3.62064
10.1417	7.07274
15.2761	10.8307
19.8644	14.982
25.2173	16.5114
30.024	17.0795
40.0744	17.4727
45.2089	17.4727
50.0156	17.5164
