Adsorption isotherm of Carbon Dioxide on COF-102
DOI: 10.1039/B805473h
Adsorbate Carbon Dioxide: InChIKey CURLTUGMZLYLDI-UHFFFAOYSA-N
Temperature: 300 K
Tabular data in the source: 0
pressure (bar)	uptake (mmol/cm3)
1.12946	1.77791
3.02302	5.62328
4.98941	10.0222
9.94179	13.1684
15.1127	14.0715
20.065	14.421
25.1631	14.625
30.0426	14.858
35.2135	14.7706
39.9474	14.6832
45.0454	14.5958
50.1435	14.3628
