Adsorption isotherm of Carbon Dioxide on COF-102
DOI: 10.1039/B805473h
Adsorbate Carbon Dioxide: InChIKey CURLTUGMZLYLDI-UHFFFAOYSA-N
Temperature: 300 K
Tabular data in the source: 0
pressure (bar)	uptake (mmol/g)
5.13507	23.7467
10.1603	31.6122
15.2583	33.3601
20.2835	34.2341
25.1631	34.9624
30.1883	34.9624
35.0678	34.9624
40.1659	34.671
45.1911	34.5254
50.0706	34.0884
