Adsorption isotherm of Carbon Dioxide on COF-10
DOI: 10.1039/B805473h
Adsorbate Carbon Dioxide: InChIKey CURLTUGMZLYLDI-UHFFFAOYSA-N
Temperature: 300 K
Tabular data in the source: 0
pressure (bar)	uptake (mmol/g)
1.05663	7.28729
5.2079	14.5702
10.2331	18.6486
20.2107	22.8727
25.3087	26.2229
30.1883	28.9904
35.1407	29.573
40.0202	29.8643
49.925	29.136
