Adsorption isotherm of Carbon Dioxide on COF-6
DOI: 10.1039/B805473h
Adsorbate Carbon Dioxide: InChIKey CURLTUGMZLYLDI-UHFFFAOYSA-N
Temperature: 300 K
Tabular data in the source: 0
pressure (bar)	uptake (mmol/g)
0.109856	4.51978
3.02302	8.45256
5.28072	8.59822
10.2331	8.88953
15.1855	9.18085
25.1631	9.32651
30.1883	9.18085
40.093	8.88953
50.0706	8.59822
