Adsorption isotherm of Carbon Dioxide on COF-10
DOI: 10.1039/B805473h
Adsorbate Carbon Dioxide: InChIKey CURLTUGMZLYLDI-UHFFFAOYSA-N
Temperature: 300 K
Tabular data in the source: 0
pressure (bar)	uptake (mmol/cm3)
0.328343	0.991352
0.983806	3.26362
2.80453	5.88547
4.84375	6.87595
9.94179	8.56558
20.2107	11.1583
25.3087	12.6149
30.1155	13.6345
35.1407	13.8967
40.1659	14.2171
49.9978	13.9258
