Adsorption isotherm of Carbon Dioxide on COF-108
DOI: 10.1039/B805473h
Adsorbate Carbon Dioxide: InChIKey CURLTUGMZLYLDI-UHFFFAOYSA-N
Temperature: 300 K
Tabular data in the source: 0
pressure (bar)	uptake (mmol/g)
1.29294	2.15363
3.25932	5.86791
10.2509	21.3805
15.1669	35.5822
20.1921	47.8175
25.3265	65.2965
30.2425	81.2461
35.1585	91.515
40.1837	93.2629
45.3181	95.4477
50.1249	95.6662
