Adsorption isotherm of Carbon Dioxide on COF-103
DOI: 10.1039/B805473h
Adsorbate Carbon Dioxide: InChIKey CURLTUGMZLYLDI-UHFFFAOYSA-N
Temperature: 300 K
Tabular data in the source: 0
pressure (bar)	uptake (mmol/cm3)
1.05663	1.51572
2.95019	7.19639
4.98941	11.2457
10.0874	14.2171
15.1127	14.8289
20.1379	15.3824
25.0902	15.528
30.1155	15.4698
35.0678	15.528
40.1659	15.4407
45.0454	15.4115
49.925	15.0037
