Adsorption isotherm of Carbon Dioxide on COF-108
DOI: 10.1039/B805473h
Adsorbate Carbon Dioxide: InChIKey CURLTUGMZLYLDI-UHFFFAOYSA-N
Temperature: 300 K
Tabular data in the source: 0
pressure (bar)	uptake (mmol/cm3)
0.965204	0.299633
3.15008	0.780305
5.00722	1.43577
10.2509	3.57694
15.0576	5.9803
20.0829	8.07778
25.2173	11.0492
35.0492	15.4627
40.0744	15.9433
45.2089	16.0744
50.0156	16.0744
