Adsorption isotherm of Carbon Dioxide on COF-8
DOI: 10.1039/B805473h
Adsorbate Carbon Dioxide: InChIKey CURLTUGMZLYLDI-UHFFFAOYSA-N
Temperature: 300 K
Tabular data in the source: 0
pressure (bar)	uptake (mmol/g)
5.2079	13.6963
10.0874	15.8811
20.1379	17.1921
30.1883	17.3377
35.2135	17.3377
40.1659	17.0464
45.1183	17.3377
49.9978	16.4638
