Adsorption isotherm of Hydrogen on Ni2(BDC)2(dabco)4DMF1.5H2O
DOI: 10.1016/j.micromeso.2010.12.001
Adsorbate Hydrogen: InChIKey UFHFLCQGNIYNRP-UHFFFAOYSA-N
Temperature: 77 K
Tabular data in the source: 0
pressure (bar)	uptake (wt%)
0.222728	0.80137
0.237465	0.258904
0.698999	1.26986
0.810865	1.65205
1.29015	2.00959
1.64953	2.28082
2.1325	2.50274
2.61614	2.7
2.97987	2.81096
3.9515	3.04521
5.6583	3.21781
7.24386	3.35342
9.07526	3.43973
10.7847	3.5137
12.9832	3.58767
14.4489	3.63699
16.4039	3.67397
17.9921	3.71096
20.3142	3.73562
22.2702	3.73562
24.1039	3.73562
25.4486	3.73562
26.6708	3.74795
29.3606	3.73562
32.0501	3.73562
34.0068	3.71096
35.3518	3.69863
37.1859	3.6863
38.7755	3.67397
40.6092	3.67397
42.3214	3.64932
43.7891	3.62466
46.4799	3.57534
48.9259	3.53836
51.6167	3.48904
