Adsorption isotherm of Hydrogen on Ni2(BDC)2(dabco)4DMF1.5H2O
DOI: 10.1016/j.micromeso.2010.12.001
Adsorbate Hydrogen: InChIKey UFHFLCQGNIYNRP-UHFFFAOYSA-N
Temperature: 299 K
Tabular data in the source: 0
pressure (bar)	uptake (wt%)
1.19423	0.016403
2.12319	0.0300692
3.45059	0.0519278
4.77943	0.0846857
5.97077	0.0792902
8.22677	0.11209
10.2182	0.147603
12.0776	0.185835
13.9362	0.218617
15.53	0.251386
18.1844	0.292379
20.8338	0.295224
23.4875	0.330767
26.1405	0.36086
28.5293	0.396391
31.1838	0.437383
35.8278	0.500265
40.4712	0.557696
45.2474	0.617859
49.7583	0.675284
54.5327	0.721823
