Adsorption isotherm of Hydrogen on Ni2(BTEC)((bipy)3)3DMF2H2O
DOI: 10.1016/j.micromeso.2010.12.001
Adsorbate Hydrogen: InChIKey UFHFLCQGNIYNRP-UHFFFAOYSA-N
Temperature: 77 K
Tabular data in the source: 0
pressure (bar)	uptake (wt%)
0.355026	0.431507
0.590816	0.752055
1.07512	0.924658
1.5601	1.0726
2.04575	1.19589
3.2649	1.31918
4.24088	1.39315
6.07295	1.45479
7.29511	1.46712
8.76076	1.51644
9.85966	1.56575
11.5705	1.59041
13.0371	1.60274
14.8712	1.59041
16.5827	1.59041
18.4168	1.57808
19.7625	1.5411
21.4744	1.52877
23.1862	1.51644
24.7761	1.49178
26.4886	1.45479
28.3237	1.40548
30.6471	1.38082
33.2153	1.34384
35.7832	1.31918
38.4747	1.24521
41.1652	1.20822
43.6105	1.19589
46.0559	1.18356
48.5019	1.14658
51.192	1.12192
