Adsorption isotherm of Hydrogen on Ni2(BTEC)((bipy)3)3DMF2H2O
DOI: 10.1016/j.micromeso.2010.12.001
Adsorbate Hydrogen: InChIKey UFHFLCQGNIYNRP-UHFFFAOYSA-N
Temperature: 88 K
Tabular data in the source: 0
pressure (bar)	uptake (wt%)
0.0120874	0.0243902
0.019362	0.0528455
0.0290463	0.0813008
0.0459856	0.126016
0.0653345	0.170732
0.0967512	0.227642
0.13541	0.292683
0.203037	0.390244
0.270637	0.471545
0.338218	0.54065
0.403376	0.601626
0.466112	0.654472
0.536069	0.703252
0.601195	0.743902
0.673556	0.788618
0.733869	0.833333
0.806204	0.861789
0.871323	0.898374
0.936429	0.926829
0.999112	0.947154
1.06905	0.98374
