Adsorption isotherm of Hydrogen on Ni2(BTEC)((bipy)3)3DMF2H2O
DOI: 10.1016/j.micromeso.2010.12.001
Adsorbate Hydrogen: InChIKey UFHFLCQGNIYNRP-UHFFFAOYSA-N
Temperature: 77 K
Tabular data in the source: 0
pressure (bar)	uptake (wt%)
0.117895	0.160274
0.354691	0.443836
0.470241	0.690411
0.707707	0.949315
1.43584	1.14658
2.89815	1.31918
4.36179	1.44247
6.3151	1.5411
8.26875	1.6274
9.36765	1.67671
10.5895	1.70137
11.6884	1.75068
12.9105	1.76301
14.0101	1.78767
15.2323	1.8
16.3318	1.82466
17.5543	1.82466
18.7765	1.83699
19.999	1.83699
21.2215	1.83699
22.444	1.83699
23.6665	1.83699
24.889	1.83699
26.1115	1.83699
27.334	1.83699
28.5568	1.82466
29.7793	1.82466
31.0018	1.82466
32.2243	1.82466
33.4468	1.82466
34.6693	1.82466
35.8918	1.82466
37.1142	1.82466
38.3371	1.81233
39.5596	1.81233
40.7821	1.81233
42.0046	1.81233
43.1045	1.82466
44.327	1.82466
45.5491	1.83699
46.7716	1.83699
47.9941	1.83699
49.2163	1.84932
50.4384	1.86164
