Adsorption isotherm of Hydrogen on Ni2(BDC)2(dabco)4DMF1.5H2O
DOI: 10.1016/j.micromeso.2010.12.001
Adsorbate Hydrogen: InChIKey UFHFLCQGNIYNRP-UHFFFAOYSA-N
Temperature: 77 K
Tabular data in the source: 0
pressure (bar)	uptake (wt%)
0.343638	0.850685
0.696319	1.36849
1.04833	1.91096
2.01092	2.47808
3.22336	2.84795
3.95117	3.05753
6.14462	3.31644
8.82976	3.47671
12.1255	3.66164
15.6673	3.78493
19.0883	3.8589
22.5103	3.89589
26.1761	3.95753
29.8436	3.95753
33.8775	3.96986
39.2568	3.95753
44.2694	3.94521
48.7929	3.93288
51.117	3.88356
