Adsorption isotherm of Nitrogen on Ni2(BTEC)((bipy)3)3DMF2H2O
DOI: 10.1016/j.micromeso.2010.12.001
Adsorbate Nitrogen: InChIKey IJGRMHOSHXDMSA-UHFFFAOYSA-N
Temperature: 77 K
Tabular data in the source: 0
pressure (bar)	uptake (cm3(STP)/g)
0.00133505	120.668
0.0032191	167.592
0.00751124	191.048
0.0319914	202.738
0.0431459	204.395
0.0609883	207.716
0.0765847	212.717
0.0966729	214.358
0.116749	217.676
0.134603	219.321
0.154692	220.962
0.177001	224.276
0.197101	224.241
0.232823	225.855
0.273012	227.462
0.313201	229.069
0.351144	232.355
0.389112	232.29
0.427055	235.576
0.467256	235.507
0.500733	238.801
0.520833	238.766
0.545388	240.4
0.619053	245.301
0.641387	245.262
0.65923	248.583
0.677097	248.553
0.697185	250.194
0.717273	251.835
0.735116	255.156
0.755191	258.474
0.77528	260.115
0.793159	258.408
0.81321	265.078
0.839998	266.707
0.853374	270.036
0.871229	271.681
0.889059	276.679
0.900213	278.335
0.918006	288.36
0.938044	296.706
0.951394	303.387
0.95802	313.431
