Adsorption isotherm of Hydrogen on Ni2(BDC)2(dabco)4DMF1.5H2O
DOI: 10.1016/j.micromeso.2010.12.001
Adsorbate Hydrogen: InChIKey UFHFLCQGNIYNRP-UHFFFAOYSA-N
Temperature: 88 K
Tabular data in the source: 0
pressure (bar)	uptake (wt%)
0.0241356	0.0406504
0.0506938	0.0948509
0.0893199	0.169377
0.132752	0.230352
0.197884	0.304878
0.267855	0.399729
0.333	0.487805
0.402965	0.575881
0.465687	0.650407
0.535638	0.724932
0.600764	0.792683
0.668293	0.853659
0.733425	0.928184
0.803363	0.98916
0.866066	1.04336
0.931185	1.10434
1.00112	1.16531
1.06381	1.20596
