Adsorption isotherm of Nitrogen on Ni2(BDC)2(dabco)4DMF1.5H2O
DOI: 10.1016/j.micromeso.2010.12.001
Adsorbate Nitrogen: InChIKey IJGRMHOSHXDMSA-UHFFFAOYSA-N
Temperature: 77 K
Tabular data in the source: 0
pressure (bar)	uptake (cm3(STP)/g)
0.000286974	261.452
0.000586426	221.228
0.000748628	199.44
0.000898354	179.328
0.00104808	159.216
0.00188405	346.924
0.00344369	137.424
0.003818	387.144
0.0080228	422.333
0.0120779	477.633
0.0121902	462.549
0.0298578	489.334
0.0454293	497.687
0.0744386	500.989
0.0989936	502.623
0.128015	504.248
0.210627	507.458
0.29325	508.991
0.378095	512.197
0.465185	513.723
0.485273	515.364
0.503153	513.657
0.558976	515.237
0.596931	516.847
0.630432	516.79
0.679542	520.057
0.717498	521.667
0.744299	521.621
0.764387	523.262
0.795642	524.884
0.838065	526.487
0.873787	528.102
0.909471	534.744
0.92508	538.069
0.945118	546.414
0.953977	556.455
