Adsorption isotherm of Hydrogen on [H2N(Me)2]2[Zn4(L)2(H2O)1.5]
DOI: 10.1039/c5qi00025d
Article source: Figure 4b
Adsorbate Hydrogen: InChIKey UFHFLCQGNIYNRP-UHFFFAOYSA-N
Kind: experiment
Temperature: 77 K
Tabular data in the source: 0
pressure (bar)	uptake (cm3(STP)/g)
0	0
9.9e-05	4.92117
0.002577	8.32905
0.00279	18.9285
0.005108	14.3868
0.007731	24.9872
0.01309	51.8662
0.017658	39.3758
0.03483	54.5242
0.035104	68.1521
0.064057	70.0558
0.064232	78.7625
0.100362	78.0191
0.134355	90.9026
0.14147	85.2271
0.211503	92.8245
0.274321	101.176
0.279079	98.1498
0.351445	101.963
0.397327	106.901
0.423788	104.64
0.488902	107.314
0.532352	111.116
0.558828	109.612
0.631148	111.154
0.645651	113.431
0.703468	112.695
0.775803	114.994
0.843289	115.777
0.881858	116.548
0.905955	116.557
0.930067	117.324
0.968621	117.338
0.999954	117.729
