Adsorption isotherm of Nitrogen on [H2N(Me)2]2[Zn4(L)2(H2O)1.5]
DOI: 10.1039/c5qi00025d
Article source: Figure 4a
Adsorbate Nitrogen: InChIKey IJGRMHOSHXDMSA-UHFFFAOYSA-N
Kind: experiment
Temperature: 77 K
Tabular data in the source: 0
pressure (bar)	uptake (cm3(STP)/g)
0	0
0.000239	7.71704
0.000431	13.8907
0.00059	19.0354
0.000846	27.2669
0.001069	34.4695
0.001532	49.3891
0.001963	63.2797
0.002378	76.6559
0.002824	91.0611
0.003207	103.408
0.003319	107.01
0.003511	113.183
0.003654	117.814
0.013755	123.473
0.036231	128.103
0.066072	130.161
0.086019	133.248
0.093431	132.219
0.105902	134.277
0.115796	133.248
0.125785	135.305
0.143107	133.762
0.158043	135.305
0.177878	134.791
0.190301	135.305
0.205253	137.363
0.249918	137.363
0.269753	136.849
0.302059	138.392
0.354168	138.392
0.406294	138.907
0.455921	138.907
0.5031	139.936
0.55769	139.936
0.604837	139.936
0.654465	139.936
0.706622	141.479
0.756217	140.45
0.805893	141.994
0.833188	141.994
0.862965	141.994
0.885314	142.508
0.905181	143.023
0.927545	144.051
0.949925	145.595
0.977348	149.711
0.984904	153.312
0.99238	154.341
0.999968	158.971
