Adsorption isotherm of Carbon Dioxide on Sr-Rho-ZMOF
DOI: 10.1080/08927022.2011.602974
Adsorbate Carbon Dioxide: InChIKey CURLTUGMZLYLDI-UHFFFAOYSA-N
Temperature: 298 K
Tabular data in the source: 0
pressure (bar)	uptake (mmol/g)
0.408163	0.408163
0.612245	6.16731
1.22449	8.18778
5.71429	10.4577
9.18367	11.0615
14.0816	11.4531
22.6531	11.846
30.4082	12.1677
36.1224	12.2407
49.1837	12.4579
60.2041	12.5682
80.2041	12.717
90	12.7559
99.7959	12.7594
