Adsorption isotherm of Methane on Al-Rho-ZMOF
DOI: 10.1080/08927022.2011.602974
Adsorbate Methane: InChIKey VNWKTOKETHGBQD-UHFFFAOYSA-N
Temperature: 298 K
Tabular data in the source: 0
pressure (bar)	uptake (mmol/g)
9.49367	7.11e-15
22.7848	7.11e-15
50.6329	7.11e-15
141.772	7.11e-15
165.823	7.11e-15
180.38	7.11e-15
193.035	0.054902
