Adsorption isotherm of Carbon Dioxide on Li-Rho-ZMOF
DOI: 10.1080/08927022.2011.602974
Adsorbate Carbon Dioxide: InChIKey CURLTUGMZLYLDI-UHFFFAOYSA-N
Temperature: 298 K
Tabular data in the source: 0
pressure (bar)	uptake (mmol/g)
0.829538	7.337
5.40211	9.53609
10.1288	9.99853
20.2072	11.278
30.0537	11.636
39.9003	11.9939
59.9877	12.1782
80.074	12.3271
100.16	12.476
