Adsorption isotherm of Carbon Dioxide on Sr-Rho-ZMOF
DOI: 10.1080/08927022.2011.602974
Adsorbate Carbon Dioxide: InChIKey CURLTUGMZLYLDI-UHFFFAOYSA-N
Temperature: 298 K
Tabular data in the source: 0
pressure (bar)	uptake (mmol/g)
0.401465	4.97908
0.464031	3.57322
0.948917	6.67782
1.53026	7.61506
2.74248	8.37657
4.58817	8.90377
7.05432	9.48954
8.90001	10.0167
12.6149	10.5439
17.5863	10.8368
23.1807	11.1297
28.7751	11.4226
34.3748	11.5983
40.6001	11.7155
46.2024	11.8326
52.4277	11.9498
58.03	12.0669
62.3887	12.1255
68.6166	12.1841
74.8446	12.2427
80.4494	12.3013
86.6774	12.3598
92.9079	12.3598
98.518	12.3013
102.872	12.477
108.479	12.477
114.71	12.477
120.937	12.5356
127.168	12.5356
132.773	12.5941
139.003	12.5941
145.231	12.6527
151.462	12.6527
157.69	12.7113
163.92	12.7113
169.528	12.7113
175.756	12.7699
181.986	12.7699
188.217	12.7699
194.447	12.7699
199.429	12.8285
