Adsorption isotherm of Carbon Dioxide on Al-Rho-ZMOF
DOI: 10.1080/08927022.2011.602974
Adsorbate Carbon Dioxide: InChIKey CURLTUGMZLYLDI-UHFFFAOYSA-N
Temperature: 298 K
Tabular data in the source: 0
pressure (bar)	uptake (mmol/g)
0.204082	0.204082
1.02041	8.68391
5.5102	10.6349
19.7959	12.164
39.7959	12.4546
59.7959	12.6744
80	12.8233
99.7959	12.9721
