Adsorption isotherm of Methane on Li-Rho-ZMOF
DOI: 10.1080/08927022.2011.602974
Adsorbate Methane: InChIKey VNWKTOKETHGBQD-UHFFFAOYSA-N
Temperature: 298 K
Tabular data in the source: 0
pressure (bar)	uptake (mmol/g)
38.9937	7.11e-15
55.3459	7.11e-15
83.0189	0.0536398
103.774	0.0536398
126.415	0.0536398
142.767	0.10728
160.377	0.0536398
174.843	0.0536398
189.308	0.10728
197.484	0.10728
