Adsorption isotherm of Carbon Dioxide on NH4-Rho-ZMOF
DOI: 10.1080/08927022.2011.602974
Adsorbate Carbon Dioxide: InChIKey CURLTUGMZLYLDI-UHFFFAOYSA-N
Temperature: 298 K
Tabular data in the source: 0
pressure (bar)	uptake (mmol/g)
6.68e-05	0.079798
0.000392	0.0597097
0.00218691	0.0998863
0.0112598	0.381123
0.0644388	1.18465
0.349788	2.47031
2.05542	4.23808
10.8662	6.6085
58.9843	8.97892
114.212	9.32042
152.75	9.54139
