Adsorption isotherm of Carbon Dioxide on Li-Rho-ZMOF
DOI: 10.1080/08927022.2011.602974
Adsorbate Carbon Dioxide: InChIKey CURLTUGMZLYLDI-UHFFFAOYSA-N
Temperature: 298 K
Tabular data in the source: 0
pressure (bar)	uptake (mmol/g)
0.628931	0.628931
1.25786	5.47126
10.6918	9.49425
59.7484	11.1034
120.126	11.908
159.748	11.908
200	12.069
