Adsorption isotherm of Carbon Dioxide on Mg-Rho-ZMOF
DOI: 10.1080/08927022.2011.602974
Adsorbate Carbon Dioxide: InChIKey CURLTUGMZLYLDI-UHFFFAOYSA-N
Temperature: 298 K
Tabular data in the source: 0
pressure (bar)	uptake (mmol/g)
0.632911	0.632911
1.89873	7.82031
10.7595	10.1172
60.1266	12.0312
120.253	12.1953
160.127	12.4141
200	12.4688
