Adsorption isotherm of Methane on Na-Rho-ZMOF
DOI: 10.1080/08927022.2011.602974
Adsorbate Methane: InChIKey VNWKTOKETHGBQD-UHFFFAOYSA-N
Temperature: 298 K
Tabular data in the source: 0
pressure (bar)	uptake (mmol/g)
12.1019	0.0542636
36.9427	0.0542636
54.7771	0.0542636
81.5287	0.108527
99.3631	0.108527
121.656	0.108527
138.217	0.0542636
152.229	0.0542636
173.885	0.0542636
194.268	0.108527
