Adsorption isotherm of Methane on Mg-Rho-ZMOF
DOI: 10.1080/08927022.2011.602974
Adsorbate Methane: InChIKey VNWKTOKETHGBQD-UHFFFAOYSA-N
Temperature: 298 K
Tabular data in the source: 0
pressure (bar)	uptake (mmol/g)
0.614754	0.571554
4.91803	1.89896
11.6803	2.92075
19.877	3.73875
25.2049	4.148
28.0738	4.37308
29.918	4.43468
32.7869	4.63934
39.959	5.00815
48.7705	5.3773
60.041	5.76736
68.4426	6.01397
79.918	6.28162
91.5984	6.5289
100	6.65306
