Adsorption isotherm of Carbon Dioxide on NH4-Rho-ZMOF
DOI: 10.1080/08927022.2011.602974
Adsorbate Carbon Dioxide: InChIKey CURLTUGMZLYLDI-UHFFFAOYSA-N
Temperature: 298 K
Tabular data in the source: 0
pressure (bar)	uptake (mmol/g)
1.02041	4.25353
5.30612	6.7715
10.2041	7.90741
20	8.93873
30	9.47392
40	9.54835
60	9.90987
79.7959	10.0941
100	10.243
