Adsorption isotherm of Carbon Dioxide on NH4-Rho-ZMOF
DOI: 10.1080/08927022.2011.602974
Adsorbate Carbon Dioxide: InChIKey CURLTUGMZLYLDI-UHFFFAOYSA-N
Temperature: 298 K
Tabular data in the source: 0
pressure (bar)	uptake (mmol/g)
0.641026	0.641026
1.92308	4.17188
10.8974	6.60938
60.2564	9
119.872	9.32812
160.256	9.60938
200.641	9.89062
