Adsorption isotherm of Methane on Al-Rho-ZMOF
DOI: 10.1080/08927022.2011.602974
Adsorbate Methane: InChIKey VNWKTOKETHGBQD-UHFFFAOYSA-N
Temperature: 298 K
Tabular data in the source: 0
pressure (bar)	uptake (mmol/g)
1.89027	0.054902
10.7206	0.109804
29.6431	0.219608
59.927	0.219608
100.308	0.164706
159.612	0.219608
199.359	0.219608
