Adsorption isotherm of Methane on Li-Rho-ZMOF
DOI: 10.1080/08927022.2011.602974
Adsorbate Methane: InChIKey VNWKTOKETHGBQD-UHFFFAOYSA-N
Temperature: 298 K
Tabular data in the source: 0
pressure (bar)	uptake (mmol/g)
0.0109507	0.00338613
0.0642893	0.0181524
0.358282	0.0375818
1.9454	0.103642
10.8416	0.284723
30.7092	0.357
62.0135	0.444821
