Adsorption isotherm of Methane on Li-Rho-ZMOF
DOI: 10.1080/08927022.2011.602974
Adsorbate Methane: InChIKey VNWKTOKETHGBQD-UHFFFAOYSA-N
Temperature: 298 K
Tabular data in the source: 0
pressure (bar)	uptake (mmol/g)
2.51572	0.0536398
10.6918	0.214559
60.3774	0.429119
120.126	0.375479
159.748	0.429119
200	0.429119
