Adsorption isotherm of Carbon Dioxide on Mg-Rho-ZMOF
DOI: 10.1080/08927022.2011.602974
Adsorbate Carbon Dioxide: InChIKey CURLTUGMZLYLDI-UHFFFAOYSA-N
Temperature: 298 K
Tabular data in the source: 0
pressure (bar)	uptake (mmol/g)
2.15e-06	0.802977
1.23e-05	1.36545
6.86e-05	1.92792
0.000382	2.26942
0.0020202	2.79172
0.0112598	3.45463
0.0644388	4.45905
0.378654	5.86523
1.94958	7.83388
11.1573	10.2244
58.9843	11.9922
111.233	12.2734
161.042	12.3136
