Adsorption isotherm of Methane on Na-Rho-ZMOF
DOI: 10.1080/08927022.2011.602974
Adsorbate Methane: InChIKey VNWKTOKETHGBQD-UHFFFAOYSA-N
Temperature: 298 K
Tabular data in the source: 0
pressure (bar)	uptake (mmol/g)
1.91083	0.108527
10.828	0.271318
29.9363	0.379845
59.8726	0.325581
119.745	0.271318
159.873	0.325581
199.363	0.325581
