Adsorption isotherm of Methane on Sr-Rho-ZMOF
DOI: 10.1080/08927022.2011.602974
Adsorbate Methane: InChIKey VNWKTOKETHGBQD-UHFFFAOYSA-N
Temperature: 298 K
Tabular data in the source: 0
pressure (bar)	uptake (mmol/g)
0.409836	0.163349
1.22951	0.551271
2.45902	1.14336
5.12295	1.69492
9.42623	2.30805
14.7541	2.88056
21.1066	3.39206
26.4344	3.74009
30.123	3.92451
34.4262	4.17029
39.959	4.41632
48.7705	4.74465
54.0984	4.909
60.2459	5.09393
69.6721	5.32034
80.123	5.52656
88.9344	5.69162
95.2869	5.79496
100.205	5.898
