Adsorption isotherm of Methane on Mg-Rho-ZMOF
DOI: 10.1080/08927022.2011.602974
Adsorbate Methane: InChIKey VNWKTOKETHGBQD-UHFFFAOYSA-N
Temperature: 298 K
Tabular data in the source: 0
pressure (bar)	uptake (mmol/g)
36.0759	0.0546875
67.0886	0
87.3418	0.0546875
122.785	0.0546875
130.38	0.109375
141.772	0.109375
155.063	0.109375
166.456	0.109375
177.215	0.109375
187.342	0.109375
196.835	0.109375
