Adsorption isotherm of Carbon Dioxide on Mg-Rho-ZMOF
DOI: 10.1080/08927022.2011.602974
Adsorbate Carbon Dioxide: InChIKey CURLTUGMZLYLDI-UHFFFAOYSA-N
Temperature: 298 K
Tabular data in the source: 0
pressure (bar)	uptake (mmol/g)
0.632911	5.90625
1.26582	6.83594
1.89873	7.82031
3.16456	8.3125
5.06329	8.85938
6.96203	9.35156
11.3924	10.4453
17.0886	10.6641
22.7848	10.8828
28.481	11.1016
34.8101	11.3203
40.5063	11.5391
46.2025	11.7578
51.8987	11.9219
58.2278	12.1406
60.1266	12.25
65.8228	12.3047
71.519	12.3047
77.8481	12.3594
84.1772	12.4141
89.8734	12.4688
96.2025	12.5234
101.899	12.5781
107.595	12.6328
113.291	12.6875
119.62	12.7422
125.949	12.7422
131.646	12.7969
137.975	12.7969
144.304	12.8516
150.633	12.8516
156.962	12.8516
162.658	12.9062
168.987	12.9062
175.316	12.9062
181.013	12.9609
187.342	12.9609
193.671	12.9609
198.734	13.0156
