Adsorption isotherm of Methane on Na-Rho-ZMOF
DOI: 10.1080/08927022.2011.602974
Adsorbate Methane: InChIKey VNWKTOKETHGBQD-UHFFFAOYSA-N
Temperature: 298 K
Tabular data in the source: 0
pressure (bar)	uptake (mmol/g)
5.53279	1.49093
11.0656	2.28797
15.5738	2.73787
19.877	3.1061
26.4344	3.57682
29.918	3.76121
39.959	4.33469
47.9508	4.62203
60.041	5.09389
73.1557	5.46391
79.918	5.62855
92.8279	5.8965
100	6.02041
