Adsorption isotherm of Carbon Dioxide on Al-Rho-ZMOF
DOI: 10.1080/08927022.2011.602974
Adsorbate Carbon Dioxide: InChIKey CURLTUGMZLYLDI-UHFFFAOYSA-N
Temperature: 298 K
Tabular data in the source: 0
pressure (bar)	uptake (mmol/g)
0.341436	6.42353
0.408239	4.94118
0.534422	2.14118
1.49935	8.72941
10.248	10.5961
29.1334	11.5294
59.4025	11.8588
79.5794	12.1333
99.7612	12.298
159.057	12.5176
198.81	12.4078
