Adsorption isotherm of Methane on NH4-Rho-ZMOF
DOI: 10.1080/08927022.2011.602974
Adsorbate Methane: InChIKey VNWKTOKETHGBQD-UHFFFAOYSA-N
Temperature: 298 K
Tabular data in the source: 0
pressure (bar)	uptake (mmol/g)
0.000344	0.00105461
0.00191448	0.00183178
0.0112395	0.00571765
0.0642893	0.0165981
0.331369	0.0461307
1.89541	0.119962
5.6557	0.267625
10.2917	0.356223
20.2488	0.429277
29.9202	0.476685
60.4202	0.478239
