Adsorption isotherm of Carbon Dioxide on Na-Rho-ZMOF
DOI: 10.1080/08927022.2011.602974
Adsorbate Carbon Dioxide: InChIKey CURLTUGMZLYLDI-UHFFFAOYSA-N
Temperature: 298 K
Tabular data in the source: 0
pressure (bar)	uptake (mmol/g)
0.636943	0.636943
1.91083	6.51163
10.1911	8.89922
59.2357	10.8527
119.108	11.3411
159.873	11.5039
200	11.3953
