Adsorption isotherm of Methane on Al-Rho-ZMOF
DOI: 10.1080/08927022.2011.602974
Adsorbate Methane: InChIKey VNWKTOKETHGBQD-UHFFFAOYSA-N
Temperature: 298 K
Tabular data in the source: 0
pressure (bar)	uptake (mmol/g)
1.93e-06	0.00105461
1.14e-05	0.00183178
6.16e-05	0.00183178
0.000362	0.00183178
0.00201679	0.00338613
0.0103952	0.00571765
0.0594601	0.0165981
0.31456	0.043022
1.9454	0.0950927
4.83794	0.144055
10.2917	0.187576
20.7828	0.242756
30.7092	0.269957
58.8678	0.241201
