Adsorption isotherm of Carbon Dioxide on Sr-Rho-ZMOF
DOI: 10.1080/08927022.2011.602974
Adsorbate Carbon Dioxide: InChIKey CURLTUGMZLYLDI-UHFFFAOYSA-N
Temperature: 298 K
Tabular data in the source: 0
pressure (bar)	uptake (mmol/g)
2.21e-06	0.320858
1.3e-05	0.541829
6.68e-05	1.06412
0.000382	1.72704
0.00191618	2.45022
0.0112598	3.29393
0.0627579	4.33852
0.359157	5.98576
1.89873	8.01468
11.1573	10.365
57.4457	11.9319
102.753	12.2734
161.042	12.3738
