Adsorption isotherm of Carbon Dioxide on Na-Rho-ZMOF
DOI: 10.1080/08927022.2011.602974
Adsorbate Carbon Dioxide: InChIKey CURLTUGMZLYLDI-UHFFFAOYSA-N
Temperature: 298 K
Tabular data in the source: 0
pressure (bar)	uptake (mmol/g)
0.543687	4.57234
1.00956	6.48643
2.48654	7.94012
3.93965	8.57861
5.38551	8.969
7.24535	9.5013
11.3614	10.1053
20.1937	10.8173
30.0351	10.998
34.3457	11.2476
39.6767	11.3558
48.6994	11.5717
59.9731	11.682
70.4272	11.7921
80.2675	11.9373
91.949	11.9769
100.558	12.0508
