Adsorption isotherm of Methane on Al-Rho-ZMOF
DOI: 10.1080/08927022.2011.602974
Adsorbate Methane: InChIKey VNWKTOKETHGBQD-UHFFFAOYSA-N
Temperature: 298 K
Tabular data in the source: 0
pressure (bar)	uptake (mmol/g)
0.204918	0.204123
1.02459	0.632862
2.66393	1.24544
5.32787	1.96027
7.9918	2.45061
11.2705	2.90026
17.623	3.61584
24.3852	4.16824
31.1475	4.57779
39.959	5.00815
46.7213	5.25443
53.4836	5.50071
59.8361	5.68568
67.2131	5.87086
73.9754	6.03551
80.123	6.15921
87.9098	6.30366
95.2869	6.42761
100	6.5102
