Adsorption isotherm of Methane on Sr-Rho-ZMOF
DOI: 10.1080/08927022.2011.602974
Adsorbate Methane: InChIKey VNWKTOKETHGBQD-UHFFFAOYSA-N
Temperature: 298 K
Tabular data in the source: 0
pressure (bar)	uptake (mmol/g)
0.000335	0.000277
0.00212456	0.00105461
0.0103952	0.0041633
0.0579323	0.0173753
0.322855	0.043022
1.9454	0.0935383
5.3688	0.179027
10.5631	0.237315
30.7092	0.257522
62.0135	0.226435
