Adsorption isotherm of Carbon Dioxide on Al-Rho-ZMOF
DOI: 10.1080/08927022.2011.602974
Adsorbate Carbon Dioxide: InChIKey CURLTUGMZLYLDI-UHFFFAOYSA-N
Temperature: 298 K
Tabular data in the source: 0
pressure (bar)	uptake (mmol/g)
0.334014	6.58824
0.922868	7.52157
1.50182	8.67451
3.3822	8.94902
5.25268	9.44314
7.75159	9.99216
11.5	10.8157
12.1309	10.8157
16.5349	11.0902
17.1634	11.1451
22.8292	11.4196
27.8691	11.5843
30.3829	11.8039
36.6871	11.9137
42.3604	12.0235
48.667	12.0784
54.3403	12.1882
60.6445	12.298
66.9512	12.3529
72.627	12.4078
78.9336	12.4627
85.2403	12.5176
91.547	12.5725
97.2227	12.6275
103.532	12.6275
109.839	12.6824
116.148	12.6824
122.457	12.6824
128.133	12.7373
134.442	12.7373
140.748	12.7922
147.058	12.7922
152.733	12.8471
159.042	12.8471
165.352	12.8471
171.658	12.902
177.967	12.902
184.277	12.902
189.955	12.902
196.262	12.9569
