Adsorption isotherm of Carbon Dioxide on Na-Rho-ZMOF
DOI: 10.1080/08927022.2011.602974
Adsorbate Carbon Dioxide: InChIKey CURLTUGMZLYLDI-UHFFFAOYSA-N
Temperature: 298 K
Tabular data in the source: 0
pressure (bar)	uptake (mmol/g)
1.23e-05	0.0597097
7.23e-05	0.140063
0.000382	0.320858
0.00191618	0.843153
0.0118711	1.80739
0.0627579	3.11313
0.359157	4.55949
1.94958	6.56832
10.8662	8.85839
60.5642	10.8471
117.271	11.3092
156.841	11.51
