Adsorption isotherm of Carbon Dioxide on Al-Rho-ZMOF
DOI: 10.1080/08927022.2011.602974
Adsorbate Carbon Dioxide: InChIKey CURLTUGMZLYLDI-UHFFFAOYSA-N
Temperature: 298 K
Tabular data in the source: 0
pressure (bar)	uptake (mmol/g)
2.27e-06	0.561917
1.26e-05	0.782889
7.23e-05	1.42571
0.000372	2.22925
0.00207431	3.05287
0.0118711	3.89657
0.0644388	5.04161
0.323123	6.46788
2.0018	8.71777
10.8662	10.6462
28.8937	11.49
60.5642	11.7913
78.8871	12.2332
92.4443	12.3537
161.042	12.4743
