Adsorption isotherm of Carbon Dioxide on Na-Rho-ZMOF
DOI: 10.1080/08927022.2011.602974
Adsorbate Carbon Dioxide: InChIKey CURLTUGMZLYLDI-UHFFFAOYSA-N
Temperature: 298 K
Tabular data in the source: 0
pressure (bar)	uptake (mmol/g)
0.636943	4.72093
1.91083	6.29457
4.4586	7.21705
8.28025	8.30233
12.7389	9.11628
18.4713	9.33333
24.2038	9.60465
29.9363	9.82171
35.6688	10.093
41.4013	10.3101
47.1338	10.5814
52.8662	10.7984
57.9618	10.9612
61.7834	11.124
75.7962	11.2868
86.6242	11.3953
92.9936	11.4496
99.3631	11.5039
105.096	11.5581
111.465	11.6124
117.834	11.6667
124.204	11.7209
130.573	11.7209
136.306	11.7752
142.675	11.7752
149.045	11.8295
155.414	11.8295
161.783	11.8837
168.153	11.8837
174.522	11.938
180.892	11.938
187.261	11.938
192.994	11.9922
199.363	11.9922
