Adsorption isotherm of Methane on Li-Rho-ZMOF
DOI: 10.1080/08927022.2011.602974
Adsorbate Methane: InChIKey VNWKTOKETHGBQD-UHFFFAOYSA-N
Temperature: 298 K
Tabular data in the source: 0
pressure (bar)	uptake (mmol/g)
0.819672	0.53078
2.2541	1.06168
5.12295	1.85819
10.041	2.77756
19.877	3.8612
30.123	4.67962
40.1639	5.25309
48.3607	5.62211
60.041	6.03266
69.6721	6.32034
80.123	6.58778
89.959	6.81428
100.205	6.97963
