Adsorption isotherm of Methane on Sr-Rho-ZMOF
DOI: 10.1080/08927022.2011.602974
Adsorbate Methane: InChIKey VNWKTOKETHGBQD-UHFFFAOYSA-N
Temperature: 298 K
Tabular data in the source: 0
pressure (bar)	uptake (mmol/g)
2.487	0.117155
10.5815	0.23431
61.0488	0.23431
100.298	0.292887
160.735	0.292887
199.987	0.292887
