Adsorption isotherm of Methane on NH4-Rho-ZMOF
DOI: 10.1080/08927022.2011.602974
Adsorbate Methane: InChIKey VNWKTOKETHGBQD-UHFFFAOYSA-N
Temperature: 298 K
Tabular data in the source: 0
pressure (bar)	uptake (mmol/g)
1.92308	0.140625
10.8974	0.375
100	0.46875
120.513	0.46875
160.256	0.515625
200.641	0.46875
