Adsorption isotherm of Carbon Dioxide on Mg-Rho-ZMOF
DOI: 10.1080/08927022.2011.602974
Adsorbate Carbon Dioxide: InChIKey CURLTUGMZLYLDI-UHFFFAOYSA-N
Temperature: 298 K
Tabular data in the source: 0
pressure (bar)	uptake (mmol/g)
0.204082	5.81273
1.02041	7.83327
5.30612	10.4221
10	11.3099
20.2041	11.8451
30	12.2739
40	12.3484
59.7959	12.7452
79.7959	12.8587
100	12.9722
