Adsorption isotherm of Methane on NH4-Rho-ZMOF
DOI: 10.1080/08927022.2011.602974
Adsorbate Methane: InChIKey VNWKTOKETHGBQD-UHFFFAOYSA-N
Temperature: 298 K
Tabular data in the source: 0
pressure (bar)	uptake (mmol/g)
7.05128	0.09375
30.1282	0.09375
48.0769	0.09375
85.2564	0.09375
101.923	0.09375
118.59	0.09375
151.923	0.140625
173.718	0.140625
191.667	0.140625
198.077	0.140625
