Adsorption isotherm of Methane on Sr-Rho-ZMOF
DOI: 10.1080/08927022.2011.602974
Adsorbate Methane: InChIKey VNWKTOKETHGBQD-UHFFFAOYSA-N
Temperature: 298 K
Tabular data in the source: 0
pressure (bar)	uptake (mmol/g)
18.6916	3.55e-15
41.7445	3.55e-15
63.5514	3.55e-15
99.6859	0.0585774
136.446	0.0585774
179.439	3.55e-15
186.911	0.117155
198.128	0.0585774
