Adsorption isotherm of Methane on NH4-Rho-ZMOF
DOI: 10.1080/08927022.2011.602974
Adsorbate Methane: InChIKey VNWKTOKETHGBQD-UHFFFAOYSA-N
Temperature: 298 K
Tabular data in the source: 0
pressure (bar)	uptake (mmol/g)
1.02459	0.469597
3.48361	1.16398
5.32787	1.51129
8.60656	2.00176
12.2951	2.34945
16.5984	2.69726
20.082	2.96328
24.3852	3.22947
29.918	3.55713
39.959	3.98775
50.2049	4.29596
59.8361	4.60405
70.6967	4.83075
80.123	5.01635
88.5246	5.14052
96.3115	5.26455
100.205	5.32657
