Adsorption isotherm of Methane on Na-Rho-ZMOF
DOI: 10.1080/08927022.2011.602974
Adsorbate Methane: InChIKey VNWKTOKETHGBQD-UHFFFAOYSA-N
Temperature: 298 K
Tabular data in the source: 0
pressure (bar)	uptake (mmol/g)
0.000326	0.00105461
0.00191448	0.00260896
0.00961438	0.00494048
0.0594601	0.0158209
0.306478	0.0437992
1.89541	0.113745
10.8416	0.30493
28.4025	0.404408
58.8678	0.352337
