Adsorption isotherm of Carbon Dioxide on Li-Rho-ZMOF
DOI: 10.1080/08927022.2011.602974
Adsorbate Carbon Dioxide: InChIKey CURLTUGMZLYLDI-UHFFFAOYSA-N
Temperature: 298 K
Tabular data in the source: 0
pressure (bar)	uptake (mmol/g)
1.25786	6.0613
1.88679	6.5977
2.51572	7.1341
3.77358	7.83142
7.54717	8.79693
10.0629	9.38697
13.8365	9.60153
19.4969	9.81609
25.1572	10.0843
30.8176	10.2989
36.478	10.567
42.1384	10.7816
47.7987	10.9962
53.4591	11.2644
59.1195	11.4789
64.7799	11.5862
67.9245	11.6398
74.2138	11.6935
80.5031	11.7471
86.1635	11.8008
89.3082	11.8544
95.5975	11.908
101.887	11.9617
105.031	12.0153
111.321	12.069
120.755	12.1762
127.044	12.1762
130.818	12.2299
137.107	12.2299
143.396	12.2835
149.686	12.2835
155.975	12.3372
161.635	12.3908
167.925	12.3908
174.843	12.4444
181.132	12.4444
187.421	12.4444
193.711	12.4981
200	12.4981
