Adsorption isotherm of Carbon Dioxide on Li-Rho-ZMOF
DOI: 10.1080/08927022.2011.602974
Adsorbate Carbon Dioxide: InChIKey CURLTUGMZLYLDI-UHFFFAOYSA-N
Temperature: 298 K
Tabular data in the source: 0
pressure (bar)	uptake (mmol/g)
1.17e-05	0.079798
6.86e-05	0.0998863
0.000372	0.361034
0.0019675	1.16457
0.0115614	2.49039
0.0611208	3.83631
0.359157	5.52373
1.8492	7.2915
11.1573	9.48112
58.9843	11.0882
111.233	11.9118
156.841	11.9721
