Adsorption isotherm of Methane on Mg-Rho-ZMOF
DOI: 10.1080/08927022.2011.602974
Adsorbate Methane: InChIKey VNWKTOKETHGBQD-UHFFFAOYSA-N
Temperature: 298 K
Tabular data in the source: 0
pressure (bar)	uptake (mmol/g)
0.00212456	0.00183178
0.0115359	0.00571765
0.0642893	0.0197068
0.349077	0.0554568
1.89541	0.118408
10.5631	0.273065
28.4025	0.300267
62.0135	0.257522
