Adsorption isotherm of Carbon Dioxide on NH4-Rho-ZMOF
DOI: 10.1080/08927022.2011.602974
Adsorbate Carbon Dioxide: InChIKey CURLTUGMZLYLDI-UHFFFAOYSA-N
Temperature: 298 K
Tabular data in the source: 0
pressure (bar)	uptake (mmol/g)
0.641026	2.48438
1.28205	3
1.92308	4.21875
5.12821	5.01562
7.05128	5.48438
8.33333	6
9.61538	6.42188
12.8205	6.79688
17.9487	7.07812
23.0769	7.35938
28.2051	7.59375
33.9744	7.875
38.4615	8.15625
44.2308	8.4375
49.359	8.67188
54.4872	8.95312
59.6154	9.23438
64.7436	9.32812
71.1538	9.375
77.5641	9.42188
85.8974	9.51562
92.3077	9.5625
98.7179	9.60938
104.487	9.65625
112.179	9.75
118.59	9.79688
125	9.84375
131.41	9.84375
137.179	9.89062
143.59	9.89062
150	9.9375
156.41	9.9375
162.821	9.9375
169.231	9.98438
175.641	9.98438
182.051	9.98438
183.974	10.0312
190.385	10.0312
196.795	10.0312
200.641	10.0312
