Adsorption isotherm of Carbon Dioxide on Sr-Rho-ZMOF
DOI: 10.1080/08927022.2011.602974
Adsorbate Carbon Dioxide: InChIKey CURLTUGMZLYLDI-UHFFFAOYSA-N
Temperature: 298 K
Tabular data in the source: 0
pressure (bar)	uptake (mmol/g)
0.357148	5.9749
0.430141	4.33473
0.477066	3.28033
0.513562	2.46025
0.547452	1.69874
0.578735	0.995816
2.13506	8.0251
10.7535	10.3682
59.9043	11.9498
99.7667	12.2427
159.575	12.3598
200.07	12.4184
