Adsorption isotherm of Methane on Mg-Rho-ZMOF
DOI: 10.1080/08927022.2011.602974
Adsorbate Methane: InChIKey VNWKTOKETHGBQD-UHFFFAOYSA-N
Temperature: 298 K
Tabular data in the source: 0
pressure (bar)	uptake (mmol/g)
1.89873	0.109375
10.7595	0.21875
60.1266	0.21875
119.62	0.328125
160.127	0.273438
200	0.328125
