Adsorption isotherm of Water on CID-3
DOI: 10.1039/C0cc00027b
Adsorbate Water: InChIKey XLYOFNOQVPJJNP-UHFFFAOYSA-N
Temperature: 298 K
Tabular data in the source: 0
pressure (bar)	uptake (ml/g)
0.000795897	0.980392
0.00143246	1.47059
0.00358102	3.43137
0.00588865	5.39216
0.00907198	8.82353
0.0114607	13.7255
0.0136904	18.6275
0.0154433	24.5098
0.0167196	31.3725
0.0176774	37.7451
0.0183974	45.5882
0.0186402	53.4314
0.0187241	61.7647
0.0190467	70.098
0.0192897	78.4314
0.0196913	85.7843
0.0203315	93.1373
0.021529	101.471
0.0234418	108.824
0.0256722	115.196
0.0280618	121.569
0.0302919	127.451
