Adsorption isotherm of Methanol on CID-3
DOI: 10.1039/C0cc00027b
Adsorbate Methanol: InChIKey OKKJLVBELUTLKV-UHFFFAOYSA-N
Temperature: 298 K
Tabular data in the source: 0
pressure (bar)	uptake (ml/g)
0.00043911	4.41176
0.000882402	10.2941
0.000897736	15.6863
0.00092004	23.5294
0.00133545	19.6078
0.00178432	27.451
0.00179687	31.8627
0.00266115	35.7843
0.00480094	38.2353
0.0073645	39.7059
0.0112064	40.6863
0.0133434	42.1569
0.0171838	42.6471
0.0214509	43.1373
0.0295598	44.6078
0.0376687	46.0784
0.0453496	47.0588
0.0543102	48.0392
0.0628457	49.5098
0.070528	50.9804
0.0786383	52.9412
0.0867472	54.4118
0.0944296	55.8824
0.107668	61.2745
0.113226	65.6863
0.11793	69.6078
0.122212	75.4902
0.129491	85.2941
0.142732	91.1765
0.158096	94.1176
0.166653	102.941
