Adsorption isotherm of Ethanol on CID-3
DOI: 10.1039/C0cc00027b
Adsorbate Ethanol: InChIKey LFQSCWFLJHTTHZ-UHFFFAOYSA-N
Temperature: 298 K
Tabular data in the source: 0
pressure (bar)	uptake (ml/g)
0.000456077	4.41176
0.0010632	9.31373
0.00166933	13.2353
0.00212541	17.6471
0.00273154	21.5686
0.00363878	25.4902
0.00469557	28.4314
0.00575287	31.8627
0.00711027	34.3137
0.0084667	35.7843
0.0102748	37.2549
0.0137389	38.7255
0.0175041	40.1961
0.0214194	41.1765
0.0254852	42.1569
0.0294005	43.1373
0.0334653	43.1373
0.0375302	43.1373
0.0417465	44.1176
0.0458124	45.098
0.0497266	45.098
0.0539425	45.5882
0.0578573	46.0784
