Adsorption isotherm of Oxygen on CID-3
DOI: 10.1039/C0cc00027b
Adsorbate Oxygen: InChIKey MYMOFIZGZYHOMD-UHFFFAOYSA-N
Temperature: 195 K
Tabular data in the source: 0
pressure (bar)	uptake (ml/g)
0.00541645	31.3403
0.00548136	33.6333
0.010054	35.1643
0.0146482	37.4596
0.0237646	39.5024
0.0306163	41.544
0.0374536	43.0761
0.0488562	45.8844
0.057951	47.1629
0.0693031	48.1877
0.0829272	49.4684
0.103374	51.7717
0.12835	54.0772
0.15104	55.6173
0.185075	57.9273
0.203229	59.2104
0.230434	60.2431
0.257653	61.7855
0.30754	64.1035
0.357435	66.6763
0.411838	68.4871
0.454902	69.7826
0.504768	71.3363
0.559149	72.3827
0.663382	74.4733
0.713219	75.0079
0.765328	75.7984
0.817422	76.0793
0.874061	76.8721
0.914846	77.6569
