Adsorption isotherm of Oxygen on CID-3
DOI: 10.1039/C0cc00027b
Adsorbate Oxygen: InChIKey MYMOFIZGZYHOMD-UHFFFAOYSA-N
Temperature: 77 K
Tabular data in the source: 0
pressure (bar)	uptake (ml/g)
0.00290415	1.34897
0.00312425	1.60944
0.00369628	1.87901
0.00431203	1.64015
0.00510402	1.9154
0.00572004	2.18611
0.00629165	1.69133
0.00813972	2.50345
0.00906341	2.27255
0.0101194	2.55463
0.0110432	2.57852
0.012011	2.60354
0.0130229	2.88448
0.0139468	2.90837
0.0150026	2.93567
0.0159265	3.21433
0.0169823	3.24163
0.0179504	3.77621
