Adsorption isotherm of Nitrogen on CID-3
DOI: 10.1039/C0cc00027b
Adsorbate Nitrogen: InChIKey IJGRMHOSHXDMSA-UHFFFAOYSA-N
Temperature: 77 K
Tabular data in the source: 0
pressure (bar)	uptake (ml/g)
0.0368939	1.03846
0.062924	1.30689
0.0932844	1.32281
0.164862	1.86991
0.203904	2.14516
0.260294	2.42952
0.299329	2.44999
0.347039	2.47501
0.394768	3.26438
0.448997	3.80237
0.494545	4.08104
0.544443	4.87154
0.596504	5.4084
0.642058	5.94185
0.689781	6.47643
0.737504	7.01102
0.785248	8.30995
0.837308	8.8468
0.885045	9.89095
