Adsorption isotherm of Carbon Dioxide on CID-3
DOI: 10.1039/C0cc00027b
Adsorbate Carbon Dioxide: InChIKey CURLTUGMZLYLDI-UHFFFAOYSA-N
Temperature: 298 K
Tabular data in the source: 0
pressure (bar)	uptake (ml/g)
0.37135	34.567
0.999693	40.7383
1.82724	46.9091
2.84168	50.6103
5.25177	54.5549
7.05933	57.5134
8.8632	59.7312
9.47679	62.9396
11.8721	63.9213
12.8743	65.1534
14.0744	66.1381
16.4734	67.8606
20.0701	70.0739
24.0664	72.5332
27.063	74.2542
30.2564	75.4808
32.6492	75.9688
40.0307	78.1728
41.6268	78.6626
44.0197	79.1506
46.6093	79.1442
