Adsorption isotherm of Oxygen on CID-3
DOI: 10.1039/C0cc00027b
Adsorbate Oxygen: InChIKey MYMOFIZGZYHOMD-UHFFFAOYSA-N
Temperature: 298 K
Tabular data in the source: 0
pressure (bar)	uptake (ml/g)
2.2367	9.13028
4.86074	16.0374
9.88995	25.9015
15.0999	32.0615
19.9041	36.741
25.0981	39.6911
30.2933	42.8882
35.0852	45.0986
40.075	47.0615
45.0624	48.5307
49.8506	50.0004
55.2352	51.2216
60.0209	52.1975
70.1912	54.3946
74.9733	54.6297
