Adsorption isotherm of Nitrogen on CID-3
DOI: 10.1039/C0cc00027b
Adsorbate Nitrogen: InChIKey IJGRMHOSHXDMSA-UHFFFAOYSA-N
Temperature: 298 K
Tabular data in the source: 0
pressure (bar)	uptake (ml/g)
1.21488	3.94762
5.04027	12.0863
10.0498	17.9999
20.043	24.6419
30.2207	28.3204
35.2069	29.5427
39.9926	30.5185
44.5792	31.4949
50.1605	32.2218
55.1454	33.1972
60.1279	33.6787
64.9112	34.1607
75.2733	34.8759
79.6569	35.112
84.8374	35.3461
89.8211	36.0745
95.0003	36.0617
99.5819	36.0504
