Adsorption isotherm of Nitrogen on PT-B-COF
DOI: 10.1039/d1qm00462j
Article source: Figure 2b
Adsorbate Nitrogen: InChIKey IJGRMHOSHXDMSA-UHFFFAOYSA-N
Kind: experiment
Temperature: 77 K
Tabular data in the source: 0
pressure (bar)	uptake (cm3(STP)/g)
0.001932	84.7296
0.001932	69.4686
0.003102	58.3896
0.000527	47.4194
0.000527	36.6048
0.000527	25.7902
0.000527	14.9757
0.001932	7.61439
0.006145	109.547
0.003275	96.2816
0.012401	125.106
0.03318	149.74
0.021594	138.311
0.069518	160.532
0.113618	165.931
0.154245	169.852
0.189534	172.103
0.26436	183.198
0.264622	174.564
0.308286	176.446
0.348921	177.784
0.362029	186.253
0.406409	187.078
0.409678	179.778
0.459989	180.887
0.505281	181.622
0.558499	182.447
0.611357	184.256
0.662347	184.66
0.712362	185
0.71398	192.254
0.764441	192.63
0.822269	188.676
0.812884	194.528
0.859339	189.124
0.892831	192.86
0.940425	196.272
0.97219	202.145
0.993029	213.878
0.99765	222.079
1.00439	241.256
1.00239	227.535
0.010678	118.355
0.003559	102.575
0.00178	77.6578
0.08424	163.621
0.097291	165.282
0.129326	167.774
0.173225	171.304
0.20526	172.965
0.918332	193.937
0.959859	199.543
0.895789	196.636
0.841211	189.369
1.00495	244.186
0.98952	210.133
0.984181	206.188
0.928417	198.713
0.874432	195.598
0.845957	195.598
0.810363	187.708
0.825787	194.352
0.762904	186.877
0.66324	190.615
0.609848	190.615
0.556457	189.369
0.507811	188.538
0.460352	187.292
0.304924	183.97
0.201701	180.648
0.142377	176.91
0.141191	169.02
