Adsorption isotherm of Nitrogen on PT-N-COF
DOI: 10.1039/d1qm00462j
Article source: Figure 2a
Adsorbate Nitrogen: InChIKey IJGRMHOSHXDMSA-UHFFFAOYSA-N
Kind: experiment
Temperature: 77 K
Tabular data in the source: 0
pressure (bar)	uptake (cm3(STP)/g)
0.001208	95.5343
0.00054	85.4566
0.00054	78.5517
0.00054	71.6467
0.00054	64.9211
0.000865	58.1866
0.000865	51.2816
0.000865	44.3767
0.000865	37.4718
0.000865	30.5668
0.000865	23.6619
0.000865	16.7569
0.002014	9.50228
0.004753	110.521
0.001944	103.661
0.00054	4.85415
0.007361	121.416
0.012207	134.1
0.00696	127.335
0.076282	171.689
0.1158	177.693
0.20549	182.574
0.256749	185.058
0.306166	187.373
0.355801	188.364
0.403769	190.411
0.452129	192.259
0.501351	193.827
0.548002	195.116
0.030848	157.5
0.065256	168.75
0.097291	175.833
0.128139	178.75
0.141191	179.583
0.173225	181.25
0.18509	182.917
0.155428	180.833
0.004746	115.417
0.001186	90.4167
0.608662	197.917
0.658494	198.333
0.709512	200.833
0.76409	201.875
0.806803	205
0.834092	206.667
0.859008	207.083
0.88867	208.75
0.913586	210
0.937316	211.25
0.961045	215.833
0.98952	225
0.995453	231.667
1.00138	240.417
1.00376	252.083
1.00376	250.833
0.994266	237.083
0.98952	228.75
0.962232	219.583
0.937316	215
0.907654	213.75
0.872059	212.917
0.845957	211.25
0.816295	210.417
0.796125	210
0.76409	209.167
0.708326	207.917
0.662053	205.833
0.609848	205
0.559423	204.583
0.507811	203.333
0.455013	200.833
0.405775	199.167
0.354756	197.917
0.304924	196.25
0.253312	193.75
0.201108	191.667
0.140004	188.333
