Adsorption isotherm of Aniline, Fomepizole on Macronet MN200
DOI: 10.1021/acs.est.6b05576
Article source: Figure 1
Adsorbate Aniline: InChIKey PAYRUJLWNCNPSJ-UHFFFAOYSA-N
Adsorbate Fomepizole: InChIKey RIKMMFOAQPJVMX-UHFFFAOYSA-N
Kind: experiment
Temperature: 273 K
Tabular data in the source: 0
pressure (bar)	Aniline fraction	Aniline uptake (mmol/g)	Fomepizole fraction	Fomepizole uptake (mmol/g)	total uptake (mmol/g)
10.1325	0.006488	1.71475	0.006356	0.02411	
10.1325	0.01121	1.56027	0.010782	0.041172	
10.1325	0.020716	1.59111	0.020564	0.057332	
10.1325	0.03322	1.58234	0.034135	0.126445	
10.1325	0.058506	1.46353	0.06066	0.192975	
10.1325	0.092939	1.46724	0.097994	0.282553	
10.1325	0.225528	1.27409	0.23206	0.508745	
10.1325	0.386189	1.20726	0.397466	0.679516	
10.1325	0.537279	1.16118	0.511211	0.835026	
10.1325	0.852707	1.06463	0.875387	1.09295	
10.1325	1.64816	0.837529	1.66878	1.46083	
10.1325	2.95869	0.781088	3.10527	1.8737	
10.1325	5.35797	0.682496	5.31374	2.25944	
10.1325	8.33681	0.567675	8.56643	2.64119	
10.1325	11.695	0.471737	12.2462	2.81449	
10.1325	19.6246	0.386189	19.2664	3.12536	
10.1325	25.527	0.331436	26.903	3.36357	
10.1325	33.22	0.296278	38.4769	3.65847	
