Adsorption isotherm of Aniline on Macronet MN200
DOI: 10.1021/acs.est.6b05576
Article source: Figure 1
Adsorbate Aniline: InChIKey PAYRUJLWNCNPSJ-UHFFFAOYSA-N
Kind: experiment
Temperature: 273 K
Tabular data in the source: 0
pressure (bar)	uptake (mmol/g)
1.01325	1.6263
1.01325	1.60214
1.01325	1.56892
1.01325	1.55382
1.01325	1.52335
1.01325	1.53109
1.01325	1.53957
1.01325	1.54241
1.01325	1.55346
1.01325	1.55776
1.01325	1.56027
1.01325	1.52616
1.01325	1.52897
1.01325	1.54277
1.01325	1.55131
1.01325	1.55955
1.01325	1.56315
1.01325	1.53993
1.01325	1.54135
1.01325	1.54312
1.01325	1.54525
1.01325	1.52862
1.01325	1.51565
1.01325	1.53709
1.01325	1.51915
