Adsorption isotherm of Fomepizole on Macronet MN200
DOI: 10.1021/acs.est.6b05576
Article source: Figure 1
Adsorbate Fomepizole: InChIKey RIKMMFOAQPJVMX-UHFFFAOYSA-N
Kind: experiment
Temperature: 273 K
Tabular data in the source: 0
pressure (bar)	uptake (mmol/g)
1.01325	0.149073
1.01325	0.205353
1.01325	0.385922
1.01325	0.756136
1.01325	1.3116
1.01325	2.05164
1.01325	2.74853
1.01325	3.57437
1.01325	3.73336
