Adsorption isotherm of Hydrogen on PCN-61
DOI: 10.1021/Jp306084t
Adsorbate Hydrogen: InChIKey UFHFLCQGNIYNRP-UHFFFAOYSA-N
Temperature: 77 K
Tabular data in the source: 0
pressure (bar)	uptake (wt%)
0.0192463	0.0951009
0.034219	0.164265
0.0534839	0.233429
0.0749009	0.293948
0.0920321	0.345821
0.119875	0.423631
0.137012	0.466859
0.162715	0.536023
0.179846	0.587896
0.196984	0.631124
0.207683	0.674352
0.224833	0.700288
0.246268	0.73487
0.265552	0.778098
0.282695	0.81268
0.312696	0.873199
0.331986	0.907781
0.351269	0.951009
0.370559	0.985591
0.389848	1.02017
0.413418	1.07205
0.432707	1.10663
0.449851	1.14121
0.46914	1.17579
0.48843	1.21037
0.514139	1.27089
0.533429	1.30548
0.552724	1.33141
0.572014	1.36599
0.591304	1.40058
0.614879	1.4438
0.634181	1.4611
0.65347	1.49568
0.67276	1.53026
0.692056	1.5562
0.713491	1.59078
0.732787	1.61671
0.752083	1.64265
0.773519	1.67723
0.792814	1.70317
0.81639	1.7464
0.835685	1.77233
0.857133	1.78963
0.876423	1.82421
0.897871	1.8415
0.917154	1.88473
0.938609	1.89337
0.957904	1.91931
0.9772	1.94524
0.998648	1.96254
1.01151	1.97983
