Adsorption isotherm of Hydrogen on PCN-61
DOI: 10.1021/Jp306084t
Adsorbate Hydrogen: InChIKey UFHFLCQGNIYNRP-UHFFFAOYSA-N
Temperature: 77 K
Tabular data in the source: 0
pressure (bar)	uptake (wt%)
0.00638863	0.0691643
0.010625	0.146974
0.0212995	0.224784
0.0298033	0.337176
0.0404778	0.414986
0.0597179	0.518732
0.0832562	0.613833
0.108922	0.73487
0.151744	0.873199
0.203125	1.04611
0.25027	1.14121
0.301694	1.2536
0.361684	1.39193
0.404537	1.48703
0.455949	1.61671
0.505227	1.72911
0.558822	1.80692
0.605986	1.87608
0.661714	1.97118
0.708878	2.04035
0.760327	2.11816
0.80749	2.18732
0.858958	2.23919
0.908286	2.28242
0.957614	2.32565
1.01123	2.37752
