Adsorption isotherm of Hydrogen on PCN-61
DOI: 10.1021/Jp306084t
Adsorbate Hydrogen: InChIKey UFHFLCQGNIYNRP-UHFFFAOYSA-N
Temperature: 77 K
Tabular data in the source: 0
pressure (bar)	uptake (wt%)
0.105826	2.23188
0.738995	14.4058
0.950944	19.0725
1.26307	22.1159
1.67924	26.1739
1.99226	29.8261
2.50949	32.8696
3.23244	36.3188
3.74878	38.7536
4.06031	41.3913
6.11826	46.058
7.65987	48.2899
9.40896	52.1449
10.2318	53.7681
11.4636	54.5797
15.6723	57.2174
20.394	60.058
22.5483	60.4638
25.9335	61.0725
28.7034	61.6812
30.4471	61.8841
33.4213	61.8841
37.2149	61.2754
40.8047	61.4783
43.6759	61.2754
46.9574	61.0725
48.7006	60.8696
50.2392	61.0725
