Adsorption isotherm of Hydrogen on PCN-61
DOI: 10.1021/Jp306084t
Adsorbate Hydrogen: InChIKey UFHFLCQGNIYNRP-UHFFFAOYSA-N
Temperature: 77 K
Tabular data in the source: 0
pressure (bar)	uptake (wt%)
0.0107116	0.0259366
0.0256658	0.121037
0.0578007	0.198847
0.0770779	0.25072
0.094209	0.302594
0.12635	0.371758
0.14564	0.40634
0.164929	0.440922
0.186371	0.466859
0.205661	0.501441
0.22495	0.536023
0.244246	0.56196
0.263535	0.596542
0.282825	0.631124
0.304267	0.657061
0.323556	0.691643
0.342846	0.726225
0.364282	0.760807
0.383577	0.786744
0.402867	0.821326
0.422156	0.855908
0.441446	0.89049
0.462882	0.925072
0.482177	0.951009
0.501467	0.985591
0.520757	1.02017
0.542192	1.05476
0.561488	1.08069
0.580777	1.11527
0.600067	1.14986
0.619357	1.18444
0.640798	1.21037
0.660088	1.24496
0.679384	1.27089
0.698673	1.30548
0.715817	1.34006
0.737265	1.35735
0.756567	1.37464
0.778015	1.39193
0.79731	1.41787
0.818758	1.43516
0.838054	1.4611
0.859502	1.47839
0.878798	1.50432
0.898106	1.51297
0.917402	1.5389
0.938844	1.56484
0.960292	1.58213
0.979593	1.59942
1.00104	1.62536
1.00961	1.64265
