Adsorption isotherm of Hydrogen on PCN-61
DOI: 10.1021/Jp306084t
Adsorbate Hydrogen: InChIKey UFHFLCQGNIYNRP-UHFFFAOYSA-N
Temperature: 77 K
Tabular data in the source: 0
pressure (bar)	uptake (wt%)
0.0234951	0.15562
0.0277376	0.224784
0.0405582	0.302594
0.0533849	0.371758
0.061901	0.466859
0.0725879	0.527378
0.087573	0.579251
0.102558	0.631124
0.117537	0.691643
0.132522	0.743516
0.147501	0.804035
0.164645	0.838617
0.18177	0.899135
0.198901	0.951009
0.216032	1.00288
0.235315	1.04611
0.252459	1.08069
0.271742	1.12392
0.28888	1.16715
0.308169	1.20173
0.325307	1.24496
0.344596	1.27954
0.361727	1.33141
0.381017	1.36599
0.4003	1.40922
0.41959	1.4438
0.436721	1.49568
0.456017	1.52161
0.475313	1.54755
0.494602	1.58213
0.51605	1.59942
0.53534	1.63401
0.554635	1.65994
0.573931	1.68588
0.593221	1.72046
0.614669	1.73775
0.633952	1.78098
0.653254	1.79827
0.674696	1.82421
0.693992	1.85014
0.713281	1.88473
0.732577	1.91066
0.754019	1.9366
0.773314	1.96254
0.792604	1.99712
0.8119	2.02305
0.833348	2.04035
0.852643	2.06628
0.874085	2.09222
0.895527	2.11816
0.912677	2.14409
0.931979	2.16138
0.95342	2.18732
0.974868	2.20461
0.99845	2.23919
1.00917	2.25648
