Adsorption isotherm of Hydrogen on PCN-61
DOI: 10.1021/Jp306084t
Adsorbate Hydrogen: InChIKey UFHFLCQGNIYNRP-UHFFFAOYSA-N
Temperature: 77 K
Tabular data in the source: 0
pressure (bar)	uptake (wt%)
0.10642	2.63768
0.213732	5.88406
1.16022	21.913
1.78447	28
2.09659	31.0435
2.30438	32.8696
3.02732	36.3188
3.95508	39.5652
4.67594	41.5942
5.70507	44.029
7.14471	46.6667
7.96813	48.6957
9.20118	50.3188
10.3317	51.942
11.2567	53.3623
13.9271	56
15.2627	57.6232
16.5965	58.029
20.086	59.8551
22.7531	60.2609
24.4974	60.8696
30.5497	61.8841
31.8832	62.087
33.5247	62.4928
34.55	62.2899
36.8062	62.2899
39.0624	62.2899
40.9084	62.2899
43.0618	62.087
45.1126	61.8841
48.2912	61.4783
50.7514	60.6667
