Adsorption isotherm of Hydrogen on PCN-61
DOI: 10.1021/Jp306084t
Adsorbate Hydrogen: InChIKey UFHFLCQGNIYNRP-UHFFFAOYSA-N
Temperature: 77 K
Tabular data in the source: 0
pressure (bar)	uptake (wt%)
0.104339	1.21739
0.63644	14.4058
0.747021	19.8841
1.06153	24.5507
1.2708	27.3913
1.68548	30.4348
2.10016	33.4783
2.61651	35.913
3.0303	38.3478
4.05912	40.5797
5.1911	43.2174
5.91167	45.0435
6.94049	47.2754
8.17502	49.913
8.99785	51.5362
10.2312	53.3623
12.5923	54.9855
16.3911	57.8261
19.0596	59.2464
20.1889	60.058
22.0358	60.6667
27.5759	62.087
30.3464	63.1014
33.4224	62.6957
38.755	62.4928
40.2937	62.6957
44.0873	62.087
48.4963	61.4783
50.752	61.0725
