Adsorption isotherm of Hydrogen on PCN-61
DOI: 10.1021/Jp306084t
Adsorbate Hydrogen: InChIKey UFHFLCQGNIYNRP-UHFFFAOYSA-N
Temperature: 77 K
Tabular data in the source: 0
pressure (bar)	uptake (wt%)
0.109393	4.66667
0.733942	10.9565
1.05023	16.8406
2.08916	25.971
3.02108	32.058
4.05199	35.7101
5.08379	39.971
6.73062	44.029
8.17205	47.8841
9.09832	50.1159
10.1266	51.942
12.8991	54.3768
15.4666	56.8116
18.4446	59.4493
20.2929	61.0725
22.7552	61.6812
25.7299	62.087
28.295	62.8986
30.4489	63.1014
33.2176	62.8986
37.8323	62.6957
43.7803	62.4928
46.6518	62.4928
48.8052	62.2899
49.8308	62.2899
50.7535	62.087
