Adsorption isotherm of Argon on Carbon
DOI: 10.1021/jp062386r
Adsorbate Argon: InChIKey XKRFYHLGVUSROY-UHFFFAOYSA-N
Temperature: 87 K
Tabular data in the source: 0
pressure (bar)	uptake (mol/m2)
0.000147	1.06e-07
0.00053	1.88e-07
0.000876	2.47e-07
0.00156314	4.06e-07
0.00239725	5.58e-07
0.00316142	7.65e-07
0.00484837	1.38e-06
0.00655675	2.17e-06
0.0114031	3.52e-06
0.0166299	5.28e-06
0.0502994	9.38e-06
0.124406	1.11e-05
0.227523	1.29e-05
0.315531	1.69e-05
0.460158	2.22e-05
0.562732	2.66e-05
0.780403	4.11e-05
0.907538	7.53e-05
