Adsorption isotherm of Argon on Carbon
DOI: 10.1021/jp062386r
Adsorbate Argon: InChIKey XKRFYHLGVUSROY-UHFFFAOYSA-N
Temperature: 87 K
Tabular data in the source: 0
pressure (bar)	uptake (micromoles/m2)
0.000106	5.25e-07
0.000202	7.43e-07
0.00029	8.9e-07
0.000586	1.17e-06
0.00147793	1.95e-06
0.00203932	2.3e-06
0.00323962	3.36e-06
0.00569114	4.83e-06
0.0108359	7.25e-06
0.024235	1.03e-05
0.0553048	1.19e-05
0.123692	1.31e-05
0.221711	1.47e-05
0.338312	2.12e-05
0.537435	2.74e-05
0.644141	3.76e-05
0.726805	4.93e-05
0.871111	8.88e-05
