Adsorption isotherm of Argon on Carbon
DOI: 10.1021/jp062386r
Adsorbate Argon: InChIKey XKRFYHLGVUSROY-UHFFFAOYSA-N
Temperature: 87 K
Tabular data in the source: 0
pressure (bar)	uptake (kmol/m3)
0.000231	0.101432
0.000456	0.319919
0.000773	0.866137
0.00137841	2.39555
0.00201022	4.25269
0.00265101	6.05521
0.00349606	7.63925
0.00497188	10.4796
0.00672377	11.8998
0.00956212	13.5384
0.017488	14.2485
0.0268197	15.0132
0.0663331	15.614
0.121315	16.1603
0.285328	16.8703
0.654407	16.8703
0.978674	16.8703
