Adsorption isotherm of Argon on Carbon
DOI: 10.1021/jp062386r
Adsorbate Argon: InChIKey XKRFYHLGVUSROY-UHFFFAOYSA-N
Temperature: 87 K
Tabular data in the source: 0
pressure (bar)	uptake (mol/m2)
5.24e-05	1.14e-07
0.00012	1.91e-07
0.000305	2.78e-07
0.000557	3.94e-07
0.00101926	5.75e-07
0.00216779	1.32e-06
0.00509853	2.72e-06
0.0105743	4.34e-06
0.021931	6.83e-06
0.0490499	9.52e-06
0.0943347	1.07e-05
0.152137	1.21e-05
0.258016	1.39e-05
0.448727	1.93e-05
0.671077	3.43e-05
0.884995	7.87e-05
