Adsorption isotherm of Argon on Carbon
DOI: 10.1021/jp062386r
Adsorbate Argon: InChIKey XKRFYHLGVUSROY-UHFFFAOYSA-N
Temperature: 87 K
Tabular data in the source: 0
pressure (bar)	uptake (mol/m2)
5.11e-05	3.65e-07
0.000106	4.31e-07
0.000225	5.02e-07
0.000337	6.58e-07
0.000572	8.64e-07
0.00101926	1.22e-06
0.0023377	1.98e-06
0.00707069	4.41e-06
0.0098057	5.61e-06
0.017488	7.71e-06
0.0304141	9.38e-06
0.0584936	1.07e-05
0.099202	1.19e-05
0.159987	1.31e-05
0.271328	1.61e-05
0.376281	2.15e-05
0.606841	3.38e-05
0.907538	7.64e-05
