Adsorption isotherm of Argon on Carbon
DOI: 10.1021/jp062386r
Adsorbate Argon: InChIKey XKRFYHLGVUSROY-UHFFFAOYSA-N
Temperature: 87 K
Tabular data in the source: 0
pressure (bar)	uptake (kmol/m3)
1.08e-05	0.0561717
1.64e-05	0.449449
3.09e-05	1.17046
3.69e-05	20.31
5.06e-05	21.3587
6.95e-05	22.4074
8.01e-05	23.7184
0.000193	25.9469
0.00112311	26.2091
0.0393667	26.1436
0.936697	26.1436
