Adsorption isotherm of Argon on Carbon
DOI: 10.1021/jp062386r
Adsorbate Argon: InChIKey XKRFYHLGVUSROY-UHFFFAOYSA-N
Temperature: 87 K
Tabular data in the source: 0
pressure (bar)	uptake (micromoles/m2)
0.000102	4.06e-07
0.000202	5.25e-07
0.000327	7.21e-07
0.000519	1.08e-06
0.000702	1.65e-06
0.000949	2.17e-06
0.00141963	3.91e-06
0.00191985	5.78e-06
0.00292952	7.15e-06
0.00474836	9.24e-06
0.00769648	9.81e-06
0.0194227	1.11e-05
0.0341204	1.16e-05
0.074792	1.25e-05
0.148251	1.43e-05
0.352206	2.22e-05
0.618731	3.59e-05
0.92532	8.62e-05
