Adsorption isotherm of Argon on Carbon
DOI: 10.1021/jp062386r
Adsorbate Argon: InChIKey XKRFYHLGVUSROY-UHFFFAOYSA-N
Temperature: 87 K
Tabular data in the source: 0
pressure (bar)	uptake (kmol/m3)
6.41e-05	0.101432
0.00022	1.35773
0.000363	3.32412
0.000517	5.83673
0.000632	7.80311
0.000899	10.2611
0.00144953	12.6098
0.00245832	13.7023
0.00427538	14.5216
0.0072508	15.0132
0.0162168	15.7233
0.0371938	15.9418
0.101729	16.4334
0.200633	16.9796
0.930656	17.5258
