Adsorption isotherm of Argon on Carbon
DOI: 10.1021/jp062386r
Adsorbate Argon: InChIKey XKRFYHLGVUSROY-UHFFFAOYSA-N
Temperature: 87 K
Tabular data in the source: 0
pressure (bar)	uptake (kmol/m3)
2.08e-07	0.00937456
7.3e-06	0.25281
1.48e-05	0.580541
2.25e-05	19.6545
2.33e-05	0.908273
2.42e-05	18.6058
3.2e-05	20.9654
5.63e-05	22.0142
8.29e-05	23.5217
0.00018	25.9469
0.00219286	26.2091
0.0249061	25.9469
0.282878	26.0125
0.785468	26.1436
