Adsorption isotherm of Argon on Carbon
DOI: 10.1021/jp062386r
Adsorbate Argon: InChIKey XKRFYHLGVUSROY-UHFFFAOYSA-N
Temperature: 87 K
Tabular data in the source: 0
pressure (bar)	uptake (micromoles/m2)
0.000102	4.79e-07
0.000218	6.48e-07
0.000361	7.89e-07
0.000586	9.6e-07
0.00100833	1.34e-06
0.0015699	2.17e-06
0.00225519	3.41e-06
0.00298907	4.75e-06
0.00514638	6.24e-06
0.00941211	7.94e-06
0.0155659	9.96e-06
0.0321215	1.14e-05
0.061159	1.27e-05
0.101146	1.35e-05
0.181298	1.59e-05
0.305928	2.09e-05
0.516234	3e-05
0.712326	4.31e-05
0.963321	8.49e-05
