Adsorption isotherm of Argon on Carbon
DOI: 10.1021/jp062386r
Adsorbate Argon: InChIKey XKRFYHLGVUSROY-UHFFFAOYSA-N
Temperature: 87 K
Tabular data in the source: 0
pressure (bar)	uptake (kmol/m3)
9.68e-06	0.00937456
5.06e-05	0.449449
0.00011	0.77718
0.000186	1.62928
0.000466	14.4108
0.000909	19.2612
0.00219286	22.5385
0.00510587	22.6041
0.0201623	22.9973
0.0824717	22.9318
0.572113	22.8663
0.904284	22.9318
