Adsorption isotherm of Argon on Carbon
DOI: 10.1021/jp062386r
Adsorbate Argon: InChIKey XKRFYHLGVUSROY-UHFFFAOYSA-N
Temperature: 87 K
Tabular data in the source: 0
pressure (bar)	uptake (kmol/m3)
0.000171	0.210675
0.000363	1.08462
0.000754	3.48799
0.00107185	6.10984
0.00144953	8.13084
0.00222301	10.6981
0.00367644	12.5006
0.0072508	14.2485
0.0193391	15.3955
0.0733547	15.9418
0.168241	16.2695
0.239262	16.7065
0.416111	16.2149
0.654407	17.0342
0.841573	16.9796
