Adsorption isotherm of Argon on Carbon
DOI: 10.1021/jp062386r
Adsorbate Argon: InChIKey XKRFYHLGVUSROY-UHFFFAOYSA-N
Temperature: 87 K
Tabular data in the source: 0
pressure (bar)	uptake (kmol/m3)
1.57e-05	0.101432
3.97e-05	0.156053
6.41e-05	0.156053
0.00012	0.756894
0.000162	1.30311
0.000262	3.92496
0.000479	11.135
0.000754	12.5552
0.00118531	13.3745
0.00222301	14.2485
0.00416917	14.904
0.00932459	15.7233
0.0203369	15.9964
0.0362698	16.3787
0.0853049	16.5426
0.34893	17.3619
0.671077	18.1266
0.978674	17.7989
