Adsorption isotherm of Argon on Carbon
DOI: 10.1021/jp062386r
Adsorbate Argon: InChIKey XKRFYHLGVUSROY-UHFFFAOYSA-N
Temperature: 87 K
Tabular data in the source: 0
pressure (bar)	uptake (mol/m2)
4.62e-05	1.06e-07
8.66e-05	2.03e-07
0.000184	4.51e-07
0.000363	9.89e-07
0.000632	2.27e-06
0.000945	4.15e-06
0.00156314	7.48e-06
0.00578185	1.04e-05
0.0162168	1.09e-05
0.0791045	1.25e-05
0.144672	1.39e-05
0.27824	1.96e-05
0.416111	2.5e-05
0.52183	2.78e-05
0.723678	4.18e-05
0.723678	6e-05
0.863011	8.36e-05
