Adsorption isotherm of Argon on Carbon
DOI: 10.1021/jp062386r
Adsorbate Argon: InChIKey XKRFYHLGVUSROY-UHFFFAOYSA-N
Temperature: 87 K
Tabular data in the source: 0
pressure (bar)	uptake (kmol/m3)
1.7e-05	0.121718
4.89e-05	0.77718
9.89e-05	3.98894
0.000207	16.2461
0.000466	22.8007
0.00183882	23.194
0.015212	23.4562
0.185383	23.3906
0.936697	23.4562
