Adsorption isotherm of Argon on Carbon
DOI: 10.1021/jp062386r
Adsorbate Argon: InChIKey XKRFYHLGVUSROY-UHFFFAOYSA-N
Temperature: 87 K
Tabular data in the source: 0
pressure (bar)	uptake (micromoles/m2)
0.000104	2.06e-07
0.000198	3.82e-07
0.000295	6.01e-07
0.000469	1.3e-06
0.000716	2.24e-06
0.00104974	4.83e-06
0.00144848	7.71e-06
0.0027579	9.38e-06
0.01062	1.06e-05
0.0308544	1.19e-05
0.0991306	1.35e-05
0.167276	1.64e-05
0.271133	2.15e-05
0.526728	3.33e-05
0.644141	4.18e-05
0.756653	5.82e-05
