Adsorption isotherm of Neon on CPM-33b
DOI: 10.1021/ja512137t
Article source: Figure  3a
Adsorbate Neon: InChIKey GKAOGPIIYCISHV-UHFFFAOYSA-N
Kind: experiment
Temperature: 77 K
Tabular data in the source: 0
pressure (bar)	uptake (cm3(STP)/g)
0.002543	76.405
0.002574	15.474
0.002655	137.683
0.002786	61.009
0.002837	92.11
0.002867	31.14
0.002888	46.074
0.002969	167.475
0.002999	182.872
0.00303	121.902
0.00303	197.806
0.00309	232.063
0.003212	118.493
0.003263	107.391
0.003323	112.978
0.003486	152.618
0.012068	243.226
0.022778	246.691
0.04512	249.503
0.070532	251.43
0.086714	252.47
0.108245	253.164
0.153862	254.515
0.20495	255.52
0.254974	256.062
0.287743	255.757
0.306336	256.336
0.335892	256.377
0.37468	256.649
0.38698	256.534
0.428574	256.538
0.442486	256.808
0.477261	256.426
0.488103	262.585
0.528481	256.507
0.539191	262.512
0.577836	256.318
0.589347	261.785
0.628124	256.283
0.639766	261.48
0.679749	256.403
0.690854	260.522
0.730036	256.56
0.740473	260.41
0.761336	257.333
0.792098	259.875
0.810418	259.492
0.843054	259.032
0.864049	258.842
0.89321	258.921
0.933467	258.731
0.943224	258.732
0.975598	258.581
0.984018	258.081
1.01197	259.353
