Adsorption isotherm of Neon on CPM-33a
DOI: 10.1021/ja512137t
Article source: Figure  3a
Adsorbate Neon: InChIKey GKAOGPIIYCISHV-UHFFFAOYSA-N
Kind: experiment
Temperature: 77 K
Tabular data in the source: 0
pressure (bar)	uptake (cm3(STP)/g)
0.001723	141.07
0.001834	127.175
0.001925	107.352
0.001945	116.089
0.001986	61.624
0.001986	63.644
0.001996	71.401
0.002097	201.617
0.002108	56.005
0.002168	166.782
0.002189	176.367
0.002219	191.686
0.00228	81.101
0.00229	70.177
0.0023	92.071
0.00231	96.036
0.002361	122.556
0.002442	171.979
0.002452	101.266
0.002452	101.309
0.002482	41.109
0.002493	196.651
0.002564	160.97
0.002594	255.35
0.002604	138.752
0.002604	111.163
0.002624	46.382
0.002645	131.37
0.002705	240.377
0.002716	136.477
0.002716	250.308
0.002736	186.112
0.002736	182.872
0.002827	10.547
0.002837	169.682
0.002847	245.343
0.002878	37.671
0.002878	36.952
0.002898	51.116
0.002949	152.079
0.00306	195.594
0.00306	191.666
0.00309	156.852
0.003202	221.055
0.003202	220.807
0.003212	225.982
0.003212	76.829
0.003222	245.669
0.003232	235.874
0.003313	217.941
0.003323	212.086
0.003617	5.62
0.0038	30.87
0.005421	262.587
0.006627	267.206
0.010112	272.364
0.025635	273.751
0.033265	280.564
0.048241	278.526
0.052	283.568
0.069783	282.53
0.071789	284.032
0.090645	283.34
0.091861	286.15
0.110708	284.073
0.112988	287.114
0.129838	285.268
0.132786	288.001
0.151775	288.638
0.152048	288.657
0.172242	286.195
0.173985	288.504
0.192305	286.543
0.194179	289.43
0.212225	287.199
0.213705	289.855
0.232429	287.354
0.23404	290.51
0.252492	287.971
0.252623	287.973
0.27375	288.396
0.274966	288.577
0.293417	290.125
0.294359	290.246
0.314148	289.285
0.314817	290.863
0.334342	289.44
0.335011	289.474
0.353736	289.403
0.354678	291.289
0.377405	289.367
0.381955	291.445
0.398542	291.177
0.417398	289.601
0.421553	292.103
0.437197	289.91
0.437734	292.22
0.455922	292.442
0.456327	292.567
0.474779	292.569
0.475842	290.144
0.497242	290.684
0.504072	293.495
0.518247	290.109
0.518521	290.165
0.536435	290.495
0.543791	294.229
0.556892	290.458
0.55904	294.654
0.577897	290.421
0.579508	293.654
0.59568	290.576
0.597828	293.579
0.618285	290.463
0.618954	293.119
0.635936	290.464
0.640627	293.89
0.658805	290.273
0.661085	293.314
0.67753	290.275
0.680478	293.662
0.698535	290.815
0.700683	293.895
0.716986	289.854
0.720471	294.474
0.738791	291.203
0.741871	294.591
0.757384	291.243
0.761802	294.669
0.778916	291.36
0.781864	295.594
0.797641	291.246
0.801795	296.366
0.821573	291.402
0.821725	291.403
0.840572	292.404
0.842325	297.908
0.860898	298.442
0.861718	298.641
0.882166	293.562
0.883118	299.336
0.902897	294.795
0.906524	299.915
0.922838	299.993
0.923365	295.413
0.941552	296.838
0.94745	300.072
0.964563	299.034
