Adsorption isotherm of Nitrogen on AC
DOI: 10.1016/j.physe.2013.10.024
Article source: Figure 4
Adsorbate Nitrogen: InChIKey IJGRMHOSHXDMSA-UHFFFAOYSA-N
Kind: experiment
Temperature: 77 K
Tabular data in the source: 0
pressure (bar)	uptake (cm3(STP)/g)
0	29.1667
0	83.3333
0.001683	66.6667
0.001794	47.9167
0.005538	117.708
0.013829	121.875
0.015976	110.417
0.02217	117.708
0.028333	130.208
0.047031	132.292
0.051177	134.375
0.074064	131.25
0.080295	132.292
0.098938	143.75
0.107304	135.417
0.140494	147.917
0.152992	143.75
0.19662	148.958
0.20282	155.208
0.209057	155.208
0.252716	155.208
0.302557	164.583
0.302588	159.375
0.315018	166.667
0.350368	165.625
0.398117	177.083
0.404397	169.792
0.408512	177.083
0.447963	185.417
0.450085	178.125
0.454194	186.458
0.497791	196.875
0.49995	183.333
0.545559	205.208
0.547737	188.542
0.549717	205.208
0.599557	214.583
0.599662	196.875
0.641193	205.208
0.643167	222.917
0.649391	225
0.649503	206.25
0.686875	214.583
0.695074	234.375
0.699225	235.417
0.701422	215.625
0.738794	223.958
0.742841	242.708
0.747104	225
0.749078	242.708
0.786562	232.292
0.796846	251.042
0.796932	236.458
0.798906	254.167
0.838463	244.792
0.84668	261.458
0.84676	247.917
0.861202	266.667
0.886212	256.25
0.894429	272.917
0.898667	259.375
0.913109	278.125
0.929778	271.875
0.946292	291.667
0.946354	281.25
0.954571	297.917
0.964991	293.75
0.981561	304.167
0.98984	310.417
