Adsorption isotherm of Carbon Dioxide on AC-Chitosan
DOI: 10.1016/j.physe.2013.10.024
Article source: Figure 7
Adsorbate Carbon Dioxide: InChIKey CURLTUGMZLYLDI-UHFFFAOYSA-N
Kind: experiment
Temperature: 303 K
Tabular data in the source: 0
pressure (bar)	uptake (mmol/g)
0	0
1.68651	1.63173
4.36508	2.90085
7.63889	4.03399
11.3095	5.03116
14.881	5.983
18.4524	6.79887
22.0238	7.61473
25.496	8.38527
28.9683	9.24646
32.4405	9.83569
36.3095	10.7422
39.881	11.7394
