Adsorption isotherm of Carbon Dioxide on AC-TETA
DOI: 10.1016/j.physe.2013.10.024
Article source: Figure 8
Adsorbate Carbon Dioxide: InChIKey CURLTUGMZLYLDI-UHFFFAOYSA-N
Kind: experiment
Temperature: 293 K
Tabular data in the source: 0
pressure (bar)	uptake (mmol/g)
0	0
1.78926	2.5914
4.47316	4.41918
8.05169	5.89012
11.4314	7.00532
14.9105	8.22212
18.2903	9.33733
21.8688	10.2998
25.3479	11.5166
28.9264	12.6316
32.7038	13.8481
36.1829	14.709
39.9602	16.1797
