Adsorption isotherm of Carbon Dioxide on AC-TETA
DOI: 10.1016/j.physe.2013.10.024
Article source: Figure 8
Adsorbate Carbon Dioxide: InChIKey CURLTUGMZLYLDI-UHFFFAOYSA-N
Kind: experiment
Temperature: 303 K
Tabular data in the source: 0
pressure (bar)	uptake (mmol/g)
0	0
1.59046	2.54076
4.47316	4.36833
7.85288	5.68693
11.4314	6.85278
14.9105	8.01874
18.2903	8.93055
21.7694	9.99481
25.6461	11.0587
29.4235	12.0718
32.9026	12.8818
36.5805	13.5899
40.0596	14.5016
