Adsorption isotherm of Carbon Dioxide on AC-Chitosan
DOI: 10.1016/j.physe.2013.10.024
Article source: Figure 7
Adsorbate Carbon Dioxide: InChIKey CURLTUGMZLYLDI-UHFFFAOYSA-N
Kind: experiment
Temperature: 293 K
Tabular data in the source: 0
pressure (bar)	uptake (mmol/g)
0	0
1.68651	1.85836
4.36508	3.26346
7.63889	4.35127
10.9127	5.48442
14.5833	6.57224
18.254	7.70538
21.8254	8.43059
25.1984	9.47309
28.7698	10.4249
32.5397	11.2408
36.0119	12.1473
39.881	13.6884
