Adsorption isotherm of Carbon Dioxide on AC-Chitosan
DOI: 10.1016/j.physe.2013.10.024
Article source: Figure 7
Adsorbate Carbon Dioxide: InChIKey CURLTUGMZLYLDI-UHFFFAOYSA-N
Kind: experiment
Temperature: 313 K
Tabular data in the source: 0
pressure (bar)	uptake (mmol/g)
0	0
1.78571	1.2238
4.56349	2.40227
7.7381	3.35411
11.3095	4.3966
14.881	5.16714
18.4524	6.20963
22.123	6.84419
25.7937	7.52408
29.3651	8.29462
33.0357	8.83853
36.4087	9.42776
39.881	10.2436
