Adsorption isotherm of Carbon Dioxide on AC
DOI: 10.1016/j.physe.2013.10.024
Article source: Figure 6
Adsorbate Carbon Dioxide: InChIKey CURLTUGMZLYLDI-UHFFFAOYSA-N
Kind: experiment
Temperature: 303 K
Tabular data in the source: 0
pressure (bar)	uptake (mmol/g)
0	-0.028329
1.4881	1.35977
4.36508	2.54958
7.8373	3.3711
11.8056	3.96601
15.7738	4.44759
19.9405	4.90085
23.9087	5.35411
27.5794	5.66572
31.5476	5.94901
35.4167	6.28895
39.1865	6.8272
39.881	6.88385
