Adsorption isotherm of Nitrogen on AC-COOH
DOI: 10.1016/j.physe.2013.10.024
Article source: Figure 4
Adsorbate Nitrogen: InChIKey IJGRMHOSHXDMSA-UHFFFAOYSA-N
Kind: experiment
Temperature: 77 K
Tabular data in the source: 0
pressure (bar)	uptake (cm3(STP)/g)
0.001423	110.417
0.001584	83.3333
0.01167	135.417
0.055224	153.125
0.098833	161.458
0.223487	176.042
0.300335	188.542
0.341922	187.5
0.397999	196.875
0.447889	197.917
0.495582	218.75
0.495675	203.125
0.595281	234.375
0.59538	217.708
0.697066	248.958
0.761459	258.333
0.798937	248.958
0.896489	276.042
0.89863	265.625
0.987792	305.208
0.99401	308.333
