Adsorption isotherm of Nitrogen on AC-TETA
DOI: 10.1016/j.physe.2013.10.024
Article source: Figure 4
Adsorbate Nitrogen: InChIKey IJGRMHOSHXDMSA-UHFFFAOYSA-N
Kind: experiment
Temperature: 77 K
Tabular data in the source: 0
pressure (bar)	uptake (cm3(STP)/g)
0.001949	21.875
0.00594	50
0.039124	63.5417
0.101457	69.7917
0.207436	78.125
0.300923	89.5833
0.319659	85.4167
0.398605	94.7917
0.421487	92.7083
0.438069	101.042
0.500458	97.9167
0.502463	110.417
0.519076	113.542
0.587733	105.208
0.596042	106.25
0.598029	121.875
0.620885	123.958
0.695674	133.333
0.714385	133.333
0.74979	122.917
0.797582	127.083
0.799574	141.667
0.826601	141.667
0.870291	136.458
0.893136	140.625
0.901377	153.125
0.936727	152.083
0.938768	158.333
0.965789	159.375
0.992748	170.833
