Adsorption isotherm of Carbon Dioxide on AC
DOI: 10.1016/j.physe.2013.10.024
Article source: Figure 6
Adsorbate Carbon Dioxide: InChIKey CURLTUGMZLYLDI-UHFFFAOYSA-N
Kind: experiment
Temperature: 293 K
Tabular data in the source: 0
pressure (bar)	uptake (mmol/g)
0	-0.028329
1.19048	1.7847
3.86905	3.14448
8.23413	3.65439
11.5079	4.50425
15.6746	5.04249
19.6429	5.41076
23.4127	5.86402
27.0833	6.40227
31.0516	6.91218
34.8214	7.36544
38.3929	7.98867
39.881	8.35694
