Adsorption isotherm of Carbon Dioxide on AC-TETA
DOI: 10.1016/j.physe.2013.10.024
Article source: Figure 8
Adsorbate Carbon Dioxide: InChIKey CURLTUGMZLYLDI-UHFFFAOYSA-N
Kind: experiment
Temperature: 313 K
Tabular data in the source: 0
pressure (bar)	uptake (mmol/g)
0	0
1.88867	2.28621
4.77137	3.85955
7.95229	5.28005
11.332	6.4461
15.2087	7.50996
18.6879	8.52337
22.0676	9.33349
25.8449	10.1941
29.4235	11.1057
33.3002	11.9661
36.6799	12.522
39.9602	13.2814
