Adsorption isotherm of Carbon Dioxide on AC
DOI: 10.1016/j.physe.2013.10.024
Article source: Figure 6
Adsorbate Carbon Dioxide: InChIKey CURLTUGMZLYLDI-UHFFFAOYSA-N
Kind: experiment
Temperature: 313 K
Tabular data in the source: 0
pressure (bar)	uptake (mmol/g)
0	-0.028329
1.78571	1.1898
4.7619	2.12465
8.43254	2.66289
11.9048	3.20113
15.873	3.73938
19.6429	4.16431
24.9008	4.19263
27.9762	4.22096
31.5476	4.50425
35.4167	4.90085
39.2857	5.32578
39.7817	5.35411
