Adsorption isotherm of Nitrogen on AC-Chitosan
DOI: 10.1016/j.physe.2013.10.024
Article source: Figure 4
Adsorbate Nitrogen: InChIKey IJGRMHOSHXDMSA-UHFFFAOYSA-N
Kind: experiment
Temperature: 77 K
Tabular data in the source: 0
pressure (bar)	uptake (cm3(STP)/g)
0.011886	98.9583
0.086607	119.792
0.101147	121.875
0.213339	134.375
0.302668	145.833
0.329707	143.75
0.402404	155.208
0.435668	155.208
0.497927	173.958
0.500087	160.417
0.597732	171.875
0.599718	187.5
0.697351	201.042
0.76175	209.375
0.799234	198.958
0.894788	212.5
0.89678	227.083
0.988108	252.083
