Adsorption isotherm of Nitrogen on MIL-68(Al)
DOI: 10.1039/C3ce40847g
Adsorbate Nitrogen: InChIKey IJGRMHOSHXDMSA-UHFFFAOYSA-N
Temperature: 77 K
Tabular data in the source: 0
pressure (bar)	uptake (cm3(STP)/g)
0.00301498	25.4313
0.00778213	195.142
0.0106424	211.159
0.0316178	232.516
0.0583138	240.525
0.102172	245.864
0.144122	248.915
0.202282	250.441
0.248046	251.966
0.344342	253.873
0.448266	255.017
0.54933	255.78
0.647533	256.161
0.746689	256.542
0.821057	256.924
0.872542	256.924
0.92212	257.305
0.947863	257.687
0.970745	259.212
