Adsorption isotherm of Nitrogen on MIL-68(Al)
DOI: 10.1039/C3ce40847g
Adsorbate Nitrogen: InChIKey IJGRMHOSHXDMSA-UHFFFAOYSA-N
Temperature: 77 K
Tabular data in the source: 0
pressure (bar)	uptake (cm3(STP)/g)
0.00351096	199.653
0.00444993	225.005
0.0053889	248.949
0.00914477	262.564
0.0147786	290.733
0.0326189	306.695
0.0767504	326.883
0.124638	332.047
0.181915	336.742
0.245764	339.09
0.349051	341.437
0.446703	344.723
0.549051	346.601
0.647642	349.418
0.746234	351.296
0.819473	355.052
0.8683	361.155
0.900225	368.667
0.919004	375.709
0.947173	400.592
0.960318	424.066
0.98661	440.968
0.987549	451.296
