Adsorption isotherm of Nitrogen on MIL-68(Al)
DOI: 10.1039/C3ce40847g
Adsorbate Nitrogen: InChIKey IJGRMHOSHXDMSA-UHFFFAOYSA-N
Temperature: 77 K
Tabular data in the source: 0
pressure (bar)	uptake (cm3(STP)/g)
0.00396841	26.5755
0.00396841	123.444
0.00587527	201.625
0.0106424	222.219
0.0325713	240.143
0.063081	248.534
0.103125	252.729
0.164144	257.687
0.249953	260.356
0.346249	262.263
0.699971	267.221
0.794361	268.746
0.848706	270.653
0.899238	272.941
0.923074	274.086
0.944049	277.899
0.967885	288.959
0.984093	294.298
0.98886	324.808
