Adsorption isotherm of Nitrogen on MIL-68(Al)
DOI: 10.1039/C3ce40847g
Adsorbate Nitrogen: InChIKey IJGRMHOSHXDMSA-UHFFFAOYSA-N
Temperature: 77 K
Tabular data in the source: 0
pressure (bar)	uptake (cm3(STP)/g)
0.00206155	114.291
0.00587527	162.725
0.0125493	176.454
0.0316178	185.226
0.0611741	192.091
0.102172	195.523
0.142216	197.811
0.198468	199.718
0.249953	201.244
0.350063	203.913
0.44922	205.82
0.551236	207.346
0.64944	209.252
0.74955	210.396
0.820103	213.066
0.874449	215.354
0.924027	219.549
0.945956	224.507
0.975512	237.092
0.995534	263.789
