Adsorption isotherm of Nitrogen on MIL-68(Al)
DOI: 10.1039/C3ce40847g
Adsorbate Nitrogen: InChIKey IJGRMHOSHXDMSA-UHFFFAOYSA-N
Temperature: 77 K
Tabular data in the source: 0
pressure (bar)	uptake (cm3(STP)/g)
0.00139321	23.2471
0.00139321	71.8386
0.00139321	173.247
0.00280166	124.656
0.00702701	220.43
0.02252	257.754
0.0591397	278.177
0.0999848	285.923
0.161957	291.557
0.243647	296.486
0.349281	300.712
0.446464	302.825
0.549281	307.754
0.649281	310.571
0.697168	313.388
0.747872	315.501
0.80421	321.839
0.847872	330.994
0.876041	343.67
0.929562	381.698
0.957731	414.092
