Adsorption isotherm of Nitrogen on MIL-68(Al)
DOI: 10.1039/C3ce40847g
Adsorbate Nitrogen: InChIKey IJGRMHOSHXDMSA-UHFFFAOYSA-N
Temperature: 77 K
Tabular data in the source: 0
pressure (bar)	uptake (cm3(STP)/g)
0.000694	26.883
0.00163303	77.1178
0.00163303	148.949
0.00351096	199.183
0.0100837	215.146
0.0279241	232.517
0.060788	241.906
0.101164	246.601
0.143417	249.888
0.200694	252.235
0.297408	255.052
0.345295	255.052
0.44952	256.93
0.545295	256.93
0.647642	258.338
0.749051	258.338
0.797877	258.338
0.84952	258.338
0.900225	258.338
0.946234	259.277
0.976281	259.277
0.983793	264.442
0.985671	287.916
