Adsorption isotherm of Nitrogen on MIL-68(Al)
DOI: 10.1039/C3ce40847g
Adsorbate Nitrogen: InChIKey IJGRMHOSHXDMSA-UHFFFAOYSA-N
Temperature: 77 K
Tabular data in the source: 0
pressure (bar)	uptake (cm3(STP)/g)
0.00163303	53.1741
0.00163303	100.592
0.00163303	200.122
0.002572	25.944
0.002572	148.949
0.0082058	219.841
0.029802	235.803
0.0823842	248.949
0.123699	252.705
0.184732	258.338
0.242948	261.625
0.346234	266.789
0.447642	271.484
0.549051	273.831
0.646703	276.648
0.748112	281.813
0.791304	286.038
0.848581	292.611
0.896469	303.878
0.926516	316.554
0.945295	325.005
0.972525	343.784
0.988487	357.869
