Adsorption isotherm of Nitrogen on ZIF-8
DOI: 10.1039/C3ta12433a
Adsorbate Nitrogen: InChIKey IJGRMHOSHXDMSA-UHFFFAOYSA-N
Temperature: 77 K
Tabular data in the source: 0
pressure (bar)	uptake (cm3(STP)/g)
0.00400996	12.9218
0.00837971	254.132
0.0280436	303.947
0.143842	320.989
0.250901	319.678
0.436615	323.611
0.600481	324.922
0.711909	334.098
0.829892	351.14
0.87359	382.602
0.904178	448.149
0.930396	532.048
0.945691	543.846
0.976279	545.157
