Adsorption isotherm of Carbon Dioxide on ZN2GeO4
DOI: 10.1039/C3ta12433a
Adsorbate Carbon Dioxide: InChIKey CURLTUGMZLYLDI-UHFFFAOYSA-N
Temperature: 273 K
Tabular data in the source: 0
pressure (bar)	uptake (cm3(STP)/g)
0.035048	0.68666
0.112513	1.47321
0.161205	2.17237
0.22539	2.43456
0.311708	2.87153
0.420158	3.3959
0.521969	3.74548
0.645913	4.18246
0.800842	4.61943
0.960198	4.96901
