Adsorption isotherm of Carbon Dioxide on Zn2GeO4-ZIF-8
DOI: 10.1039/C3ta12433a
Adsorbate Carbon Dioxide: InChIKey CURLTUGMZLYLDI-UHFFFAOYSA-N
Temperature: 273 K
Tabular data in the source: 0
pressure (bar)	uptake (cm3(STP)/g)
0.0107019	0.51187
0.0726737	1.99758
0.170058	3.4833
0.269655	4.88162
0.417945	6.9791
0.552955	9.07658
0.705671	11.6984
0.816335	13.2715
0.962411	15.5438
