Adsorption isotherm of Nitrogen on Zn2GeO4-ZIF-8
DOI: 10.1039/C3ta12433a
Adsorbate Nitrogen: InChIKey IJGRMHOSHXDMSA-UHFFFAOYSA-N
Temperature: 77 K
Tabular data in the source: 0
pressure (bar)	uptake (cm3(STP)/g)
0.00400996	31.2747
0.0127495	57.4932
0.0586318	79.7789
0.180985	87.6444
0.351405	98.1318
0.52838	115.174
0.6988	132.216
0.812413	142.703
0.934766	164.989
0.965355	189.897
0.989388	203.006
