Adsorption isotherm of Carbon Dioxide on ZIF-8
DOI: 10.1039/C3ta12433a
Adsorbate Carbon Dioxide: InChIKey CURLTUGMZLYLDI-UHFFFAOYSA-N
Temperature: 273 K
Tabular data in the source: 0
pressure (bar)	uptake (cm3(STP)/g)
0.0173418	1.21103
0.0616073	2.52195
0.121366	3.30851
0.172271	4.18246
0.209897	5.49338
0.258589	7.41607
0.36704	10.8245
0.46885	14.932
0.559595	18.5152
0.668045	22.885
0.765429	27.1673
0.856174	30.9253
0.955771	34.5085
