Adsorption isotherm of Nitrogen on ZN2GeO4
DOI: 10.1039/C3ta12433a
Adsorbate Nitrogen: InChIKey IJGRMHOSHXDMSA-UHFFFAOYSA-N
Temperature: 77 K
Tabular data in the source: 0
pressure (bar)	uptake (cm3(STP)/g)
0.0236738	2.43436
0.148212	10.2999
0.272749	6.36713
0.44317	14.2327
0.593926	16.8545
0.696615	23.4091
0.821153	27.3419
0.895439	40.4512
0.934766	53.5604
0.967539	75.8461
0.978464	96.8209
0.989388	105.997
