Adsorption isotherm of Oxygen on C40.5H32.5N11.5O9.5Zn2
DOI: 10.1038/Nmat2808
Adsorbate Oxygen: InChIKey MYMOFIZGZYHOMD-UHFFFAOYSA-N
Temperature: 77 K
Tabular data in the source: 0
pressure (bar)	uptake (ml/g)
0.000169431	0.39604
0.000466356	0.693069
0.000805848	0.891089
0.00114545	0.990099
0.00152751	1.08911
0.00182464	1.18812
0.00229163	1.28713
0.00263122	1.38614
0.00297093	1.38614
0.00335299	1.48515
0.00373505	1.58416
0.00407465	1.68317
0.00449938	1.58416
0.0049239	1.68317
0.00530596	1.78218
0.00645246	1.78218
0.00759875	1.9802
0.00878771	1.9802
0.0099341	2.07921
0.0111231	2.07921
0.0123967	2.27723
0.0136705	2.37624
0.0148595	2.37624
0.0161333	2.47525
0.0174071	2.47525
0.0186385	2.57426
0.0199124	2.47525
