Adsorption isotherm of Carbon Dioxide on C40.5H32.5N11.5O9.5Zn2
DOI: 10.1038/Nmat2808
Adsorbate Carbon Dioxide: InChIKey CURLTUGMZLYLDI-UHFFFAOYSA-N
Temperature: 195 K
Tabular data in the source: 0
pressure (bar)	uptake (ml/g)
0.0229751	47.7419
0.055698	49.0323
0.0797061	49.4624
0.108076	50.1075
0.123351	50.5376
0.1539	51.3978
0.175734	51.3978
0.199732	52.2581
0.22374	52.6882
0.247753	52.9032
0.273945	53.3333
0.297953	53.7634
0.324149	53.9785
0.345974	54.4086
0.372165	54.8387
0.398357	55.2688
0.420181	55.6989
0.446382	55.6989
0.468202	56.3441
0.496582	56.5591
0.520594	56.7742
0.544603	57.2043
0.572977	57.6344
0.594797	58.2796
0.616627	58.4946
0.64718	59.1398
0.666822	59.5699
0.69083	60
0.741029	60.8602
0.762854	61.2903
0.786862	61.7204
0.815237	62.1505
0.83924	62.7957
0.865427	63.4409
0.887252	63.871
0.911255	64.5161
0.935258	65.1613
0.959262	65.8065
0.983265	66.4516
