Adsorption isotherm of Nitrogen on C40.5H32.5N11.5O9.5Zn2
DOI: 10.1038/Nmat2808
Adsorbate Nitrogen: InChIKey IJGRMHOSHXDMSA-UHFFFAOYSA-N
Temperature: 77 K
Tabular data in the source: 0
pressure (bar)	uptake (ml/g)
0.0170495	0.18018
0.0323882	1.42e-14
0.129553	1.42e-14
0.156827	1.42e-14
0.1824	0.18018
0.207972	0.36036
0.259112	0.36036
0.311959	0.540541
0.357987	0.720721
0.410834	0.900901
0.460272	1.08108
0.511411	1.08108
0.562556	1.44144
0.611994	1.62162
0.663136	1.8018
0.712577	2.16216
0.763719	2.34234
0.813157	2.52252
0.864302	2.88288
0.889875	3.06306
