Adsorption isotherm of Oxygen on C40.5H32.5N11.5O9.5Zn2
DOI: 10.1038/Nmat2808
Adsorbate Oxygen: InChIKey MYMOFIZGZYHOMD-UHFFFAOYSA-N
Temperature: 77 K
Tabular data in the source: 0
pressure (bar)	uptake (ml/g)
0.00248612	1.44144
0.00567791	1.98198
0.0124127	2.16216
0.0223381	2.52252
0.0265925	2.88288
0.0308457	2.88288
0.0350995	3.06306
0.0400615	3.06306
0.0443147	3.06306
0.0485685	3.24324
0.0531767	3.42342
0.0570761	3.6036
0.0616837	3.6036
0.0659368	3.6036
0.0723172	3.78378
0.0786976	3.96396
0.085078	4.14414
0.0918128	4.32432
0.0978381	4.32432
0.104218	4.5045
0.1106	4.86486
0.117334	4.86486
0.12336	5.22523
0.132222	5.40541
0.14002	5.76577
0.148527	5.76577
0.156681	6.30631
0.165189	6.84685
0.173698	7.56757
0.181853	8.64865
