Adsorption isotherm of Oxygen on C40.5H32.5N11.5O9.5Zn2
DOI: 10.1038/Nmat2808
Adsorbate Oxygen: InChIKey MYMOFIZGZYHOMD-UHFFFAOYSA-N
Temperature: 77 K
Tabular data in the source: 0
pressure (bar)	uptake (ml/g)
4.16e-05	0.792079
8.31e-05	1.68317
0.000124866	2.37624
0.000208741	3.36634
0.000292931	4.05941
0.000462046	4.75248
0.000631372	5.24752
0.000843161	5.74257
0.00113998	6.13861
0.00143701	6.33663
0.00181897	6.53465
0.00215846	6.73267
0.00249806	6.83168
0.00288012	6.93069
0.00321961	7.12871
0.00360177	7.12871
0.00398383	7.22772
0.0043659	7.32673
0.0047056	7.32673
0.00513002	7.52475
0.00546961	7.62376
0.00580942	7.52475
0.00627641	7.62376
0.00661611	7.62376
0.00704063	7.72277
0.00738023	7.82178
0.00780475	7.92079
0.00814446	7.92079
0.00852652	8.0198
0.00890868	8.0198
0.00929074	8.11881
0.00967291	8.11881
0.010055	8.21782
0.0108618	8.21782
0.0116685	8.31683
0.0125176	8.41584
0.0133244	8.41584
0.014131	8.61386
0.0150652	8.61386
0.0158293	8.81188
0.0167211	8.71287
0.0175278	8.81188
0.018377	8.91089
