Adsorption isotherm of Carbon monoxide on C40.5H32.5N11.5O9.5Zn2
DOI: 10.1038/Nmat2808
Adsorbate Carbon monoxide: InChIKey UGFAIRIUMAVXCW-UHFFFAOYSA-N
Temperature: 120 K
Tabular data in the source: 0
pressure (bar)	uptake (ml/g)
0.00152604	30.1075
0.0146312	29.8925
0.0320984	29.8925
0.0582993	29.8925
0.0866742	30.3226
0.108508	30.3226
0.136888	30.5376
0.156543	30.3226
0.184918	30.7527
0.211119	30.7527
0.263525	30.5376
0.315922	30.7527
0.363957	30.7527
0.414176	30.7527
0.464385	31.1828
0.516786	31.1828
0.567005	31.1828
0.619406	31.1828
0.66962	31.3978
0.719838	31.3978
0.770052	31.6129
0.822454	31.6129
0.870484	31.828
0.898864	32.043
0.925065	32.043
0.973099	32.043
