Adsorption isotherm of Oxygen on C40.5H32.5N11.5O9.5Zn2
DOI: 10.1038/Nmat2808
Adsorbate Oxygen: InChIKey MYMOFIZGZYHOMD-UHFFFAOYSA-N
Temperature: 120 K
Tabular data in the source: 0
pressure (bar)	uptake (ml/g)
0.00121613	44.3011
0.00126778	41.9355
0.00351693	38.9247
0.0055219	47.0968
0.0207635	49.0323
0.0272668	51.1828
0.0425083	53.1183
0.0533972	54.4086
0.0708081	56.9892
0.0904165	58.9247
0.110025	60.8602
0.129638	62.5806
0.151434	64.3011
0.171052	65.8065
0.192863	66.8817
0.208123	67.957
0.232122	68.8172
0.256111	70.1075
0.275743	70.9677
0.299746	71.6129
0.319378	72.4731
0.341194	73.3333
0.36084	73.5484
0.384838	74.4086
0.406658	75.0538
0.450308	75.914
0.474316	76.3441
0.51796	77.4194
0.561605	78.4946
0.607442	79.1398
0.629262	79.7849
0.65327	80.2151
0.672912	80.6452
0.699103	81.0753
0.723116	81.2903
0.742757	81.7204
0.764587	81.9355
0.784228	82.3656
0.812603	82.7957
0.834427	83.2258
0.851895	83.2258
0.878081	83.871
0.899911	84.086
0.923919	84.5161
0.943565	84.7312
0.963201	85.3763
