Adsorption isotherm of Carbon monoxide on C40.5H32.5N11.5O9.5Zn2
DOI: 10.1038/Nmat2808
Adsorbate Carbon monoxide: InChIKey UGFAIRIUMAVXCW-UHFFFAOYSA-N
Temperature: 77 K
Tabular data in the source: 0
pressure (bar)	uptake (ml/g)
0.00673764	0.36036
0.0173199	0.36036
0.0365604	0.36036
0.0461824	0.540541
0.0606128	0.540541
0.0760052	0.540541
0.0904356	0.540541
0.103906	0.720721
0.118336	0.720721
0.147195	0.540541
0.176058	0.720721
0.204918	0.720721
0.230893	0.720721
0.260719	1.08108
0.287654	0.900901
0.316517	1.08108
0.34634	1.08108
0.374238	1.08108
0.403101	1.26126
0.431963	1.44144
0.458902	1.62162
0.491611	1.62162
0.502195	1.8018
