Adsorption isotherm of Nitrogen on C40.5H32.5N11.5O9.5Zn2
DOI: 10.1038/Nmat2808
Adsorbate Nitrogen: InChIKey IJGRMHOSHXDMSA-UHFFFAOYSA-N
Temperature: 120 K
Tabular data in the source: 0
pressure (bar)	uptake (ml/g)
0.00993567	44.9462
0.0295769	45.3763
0.0513875	46.4516
0.0797624	46.8817
0.0994084	47.0968
0.145255	47.3118
0.171451	47.5269
0.188919	47.5269
0.212927	47.957
0.234761	47.957
0.258778	47.957
0.28497	48.3871
0.306804	48.3871
0.328638	48.3871
0.350472	48.3871
0.372306	48.3871
0.398497	48.8172
0.420332	48.8172
0.442166	48.8172
0.466183	48.8172
0.488008	49.2473
0.512025	49.2473
0.533855	49.4624
0.555689	49.4624
0.603719	49.6774
0.625548	49.8925
0.647378	50.1075
0.669212	50.1075
0.719421	50.5376
0.763089	50.5376
0.808931	50.9677
0.856961	51.1828
0.924633	51.828
0.94865	51.828
0.970475	52.2581
