Adsorption isotherm of Oxygen on C40.5H32.5N11.5O9.5Zn2
DOI: 10.1038/Nmat2808
Adsorbate Oxygen: InChIKey MYMOFIZGZYHOMD-UHFFFAOYSA-N
Temperature: 77 K
Tabular data in the source: 0
pressure (bar)	uptake (ml/g)
4.1e-05	1.38614
7.57e-05	8.71287
7.69e-05	7.52475
7.8e-05	6.53465
7.94e-05	5.24752
8.07e-05	3.9604
8.22e-05	2.57426
0.000115617	11.0891
0.000116983	9.80198
0.000151878	16.9307
0.000155242	13.7624
0.000191293	19.802
0.000273486	22.3762
0.000355994	24.6535
0.000438713	26.7327
0.000479284	28.5149
0.000647348	30.198
0.000857245	32.4752
0.00111024	34.1584
0.00140621	35.3465
0.00174529	35.9406
0.00212672	36.6337
0.0024661	36.9307
0.00284795	37.2277
0.00318745	37.4257
0.0035693	37.7228
0.00399392	37.7228
0.00433331	38.0198
0.00471548	38.0198
0.00509743	38.2178
0.00543693	38.4158
0.00581878	38.7129
0.00620084	38.8119
0.00658258	39.2079
0.007007	39.4059
0.00738885	39.703
0.00772824	40
0.00811009	40.297
0.00849215	40.396
0.00887421	40.495
0.00929884	40.495
0.00963844	40.5941
0.010063	40.6931
0.0108273	40.6931
0.0116338	40.9901
0.0124406	40.9901
0.0133319	41.3861
0.0141382	41.7822
0.014988	41.2871
0.0157937	42.3762
0.0166433	41.9802
0.0175347	42.2772
0.0183415	42.2772
