Adsorption isotherm of Acetylene on C40.5H32.5N11.5O9.5Zn2
DOI: 10.1038/Nmat2808
Adsorbate Acetylene: InChIKey HSFWRNGVRCDJHI-UHFFFAOYSA-N
Temperature: 195 K
Tabular data in the source: 0
pressure (bar)	uptake (ml/g)
0.00127248	41.7204
0.00138048	36.7742
0.00331502	48.172
0.00983707	49.4624
0.0229234	50.1075
0.0447387	50.9677
0.0665634	51.3978
0.0949336	52.043
0.123318	52.043
0.153881	52.2581
0.221566	52.2581
0.293609	52.6882
0.36785	52.4731
0.439893	52.9032
0.511941	53.1183
0.581819	52.6882
0.65605	52.9032
0.728103	52.9032
0.80015	53.1183
0.874391	52.9032
0.94426	52.9032
1.01631	53.1183
