Adsorption isotherm of Carbon Dioxide, Methane on CO2 reinforced nanoporous carbon
DOI: 10.1016/j.carbon.2017.06.057
Article source: Figure 3
Adsorbate Carbon Dioxide: InChIKey CURLTUGMZLYLDI-UHFFFAOYSA-N
Adsorbate Methane: InChIKey VNWKTOKETHGBQD-UHFFFAOYSA-N
Kind: experiment
Temperature: 298 K
Tabular data in the source: 0
pressure (bar)	Carbon Dioxide fraction	Carbon Dioxide uptake (mmol/kg)	Methane fraction	Methane uptake (mmol/kg)	total uptake (mmol/kg)
0.131155	0.001155	7.15	0.13	201.26	
0.139215	0.009215	47.64	0.13	201.26	
0.148955	0.018955	88.12	0.13	201.26	
0.15757	0.02757	130.47	0.13	201.26	
0.16585	0.03585	184.03	0.13	201.26	
0.18972	0.05972	339.72	0.13	201.26	
0.205605	0.075605	416.95	0.13	201.26	
0.238455	0.108455	567.68	0.13	201.26	
0.29262	0.16262	742.1	0.13	201.26	
0.342675	0.212675	930.21	0.13	201.26	
0.40029	0.27029	1057.32	0.13	201.26	
