Adsorption isotherm of Carbon Dioxide, Methane on CO2 reinforced nanoporous carbon
DOI: 10.1016/j.carbon.2017.06.057
Article source: Figure 3
Adsorbate Carbon Dioxide: InChIKey CURLTUGMZLYLDI-UHFFFAOYSA-N
Adsorbate Methane: InChIKey VNWKTOKETHGBQD-UHFFFAOYSA-N
Kind: experiment
Temperature: 298 K
Tabular data in the source: 0
pressure (bar)	Carbon Dioxide fraction	Carbon Dioxide uptake (mmol/kg)	Methane fraction	Methane uptake (mmol/kg)	total uptake (mmol/kg)
0.408945	-0.001055	7.63	0.41	494.87	
0.41323	0.00323	52.61	0.41	494.87	
0.420825	0.010825	85.23	0.41	494.87	
0.42984	0.01984	144.05	0.41	494.87	
0.44151	0.03151	215.23	0.41	494.87	
0.455295	0.045295	292.34	0.41	494.87	
0.476545	0.066545	382.81	0.41	494.87	
0.51888	0.10888	564.73	0.41	494.87	
0.596335	0.186335	876.68	0.41	494.87	
0.68245	0.27245	1092.77	0.41	494.87	
0.782855	0.372855	1302.97	0.41	494.87	
