Adsorption isotherm of Carbon Dioxide on CO2 reinforced nanoporous carbon
DOI: 10.1016/j.carbon.2017.06.057
Article source: Figure 2
Adsorbate Carbon Dioxide: InChIKey CURLTUGMZLYLDI-UHFFFAOYSA-N
Kind: experiment
Temperature: 298 K
Tabular data in the source: 0
pressure (bar)	uptake (mmol/kg)
0	7.8
0.00179	34.11
0.00612	49.74
0.00776	60.02
0.01284	74.43
0.01822	129.51
0.02912	202.28
0.04628	315.22
0.06809	404.02
0.09654	524.17
0.13163	652.17
0.17715	793.26
0.23594	944.86
0.30233	1091.27
0.36493	1177.67
0.4427	1300.66
0.52427	1415.84
0.61153	1528.45
0.69689	1628
0.77941	1724.93
0.89417	1822.02
0.94539	1861.4
