Adsorption isotherm of Carbon Dioxide, Methane on CO2 reinforced nanoporous carbon
DOI: 10.1016/j.carbon.2017.06.057
Article source: Figure 3
Adsorbate Carbon Dioxide: InChIKey CURLTUGMZLYLDI-UHFFFAOYSA-N
Adsorbate Methane: InChIKey VNWKTOKETHGBQD-UHFFFAOYSA-N
Kind: experiment
Temperature: 298 K
Tabular data in the source: 0
pressure (bar)	Carbon Dioxide fraction	Carbon Dioxide uptake (mmol/kg)	Methane fraction	Methane uptake (mmol/kg)	total uptake (mmol/kg)
0.33896	-0.00104	3.9	0.34	437.98	
0.345915	0.005915	67.45	0.34	437.98	
0.34925	0.00925	105.5	0.34	437.98	
0.358005	0.018005	113.36	0.34	437.98	
0.367535	0.027535	187.9	0.34	437.98	
0.37866	0.03866	253.02	0.34	437.98	
0.39685	0.05685	342.87	0.34	437.98	
0.42463	0.08463	472.74	0.34	437.98	
0.468875	0.128875	609.31	0.34	437.98	
0.51162	0.17162	750.19	0.34	437.98	
0.57056	0.23056	983.26	0.34	437.98	
0.664695	0.324695	1186.59	0.34	437.98	
