Adsorption isotherm of Carbon Dioxide, Methane on CO2 reinforced nanoporous carbon
DOI: 10.1016/j.carbon.2017.06.057
Article source: Figure 3
Adsorbate Carbon Dioxide: InChIKey CURLTUGMZLYLDI-UHFFFAOYSA-N
Adsorbate Methane: InChIKey VNWKTOKETHGBQD-UHFFFAOYSA-N
Kind: experiment
Temperature: 298 K
Tabular data in the source: 0
pressure (bar)	Carbon Dioxide fraction	Carbon Dioxide uptake (mmol/kg)	Methane fraction	Methane uptake (mmol/kg)	total uptake (mmol/kg)
0.065	0	11.11	0.065	113.09	
0.06828	0.00328	39.73	0.065	128.55	
0.07278	0.00778	64.01	0.065	142.04	
0.09142	0.02642	124.99	0.065	120.24	
0.10975	0.04475	236.97	0.065	63.63	
0.1247	0.0597	331.54	0.065	37.42	
0.14913	0.08413	406.22	0.065	23.23	
0.17308	0.10808	516.97	0.065	17.37	
0.20233	0.13733	655.1	0.065	13.24	
