Adsorption isotherm of Carbon Dioxide, Methane on CO2 reinforced nanoporous carbon
DOI: 10.1016/j.carbon.2017.06.057
Article source: Figure 3
Adsorbate Carbon Dioxide: InChIKey CURLTUGMZLYLDI-UHFFFAOYSA-N
Adsorbate Methane: InChIKey VNWKTOKETHGBQD-UHFFFAOYSA-N
Kind: experiment
Temperature: 298 K
Tabular data in the source: 0
pressure (bar)	Carbon Dioxide fraction	Carbon Dioxide uptake (mmol/kg)	Methane fraction	Methane uptake (mmol/kg)	total uptake (mmol/kg)
0.26	0	14.28	0.26	368.93	
0.267735	0.007735	93.37	0.26	368.93	
0.28067	0.02067	146.76	0.26	368.93	
0.28678	0.02678	158.63	0.26	368.93	
0.29363	0.03363	204.1	0.26	368.93	
0.323585	0.063585	348.45	0.26	368.93	
0.35976	0.09976	490.83	0.26	368.93	
0.37561	0.11561	556.08	0.26	368.93	
0.409745	0.149745	720.2	0.26	368.93	
0.461545	0.201545	872	0.26	368.93	
0.532585	0.272585	1077.2	0.26	368.93	
