Adsorption isotherm of Methane on CO2 reinforced nanoporous carbon
DOI: 10.1016/j.carbon.2017.06.057
Article source: Figure 2
Adsorbate Methane: InChIKey VNWKTOKETHGBQD-UHFFFAOYSA-N
Kind: experiment
Temperature: 298 K
Tabular data in the source: 0
pressure (bar)	uptake (mmol/kg)
0.00119	3.29
0.01897	18.58
0.04377	68.01
0.08021	129.4
0.11457	180.1
0.16431	250.19
0.25289	348
0.36223	454.54
0.47158	544.64
0.59018	630.68
0.68489	691.96
0.85339	793.03
0.91643	825.39
