Adsorption isotherm of Carbon Dioxide, Methane on CO2 reinforced nanoporous carbon
DOI: 10.1016/j.carbon.2017.06.057
Article source: Figure 3
Adsorbate Carbon Dioxide: InChIKey CURLTUGMZLYLDI-UHFFFAOYSA-N
Adsorbate Methane: InChIKey VNWKTOKETHGBQD-UHFFFAOYSA-N
Kind: experiment
Temperature: 298 K
Tabular data in the source: 0
pressure (bar)	Carbon Dioxide fraction	Carbon Dioxide uptake (mmol/kg)	Methane fraction	Methane uptake (mmol/kg)	total uptake (mmol/kg)
0.2	0	9.24	0.2	280.01	
0.20283	0.00283	45.82	0.2	280.01	
0.21697	0.01697	102.17	0.2	280.01	
0.224525	0.024525	138.76	0.2	280.01	
0.23484	0.03484	199.06	0.2	280.01	
0.258385	0.058385	324.62	0.2	280.01	
0.305875	0.105875	527.3	0.2	280.01	
0.367185	0.167185	782.39	0.2	280.01	
0.42313	0.22313	928.76	0.2	280.01	
0.46667	0.26667	1064.23	0.2	280.01	
