Adsorption isotherm of Methane on PCN-26-ac
DOI: 10.1021/Cm2008889
Adsorbate Methane: InChIKey VNWKTOKETHGBQD-UHFFFAOYSA-N
Temperature: 195 K
Tabular data in the source: 0
pressure (bar)	uptake (cm3(STP)/g)
0.0511549	28.0628
0.13556	59.1627
0.401566	133.616
0.532011	161.446
0.636878	183.081
0.869633	216.88
1.05635	236.707
