Adsorption isotherm of Hydrogen on PCN-26-ac
DOI: 10.1021/Cm2008889
Adsorbate Hydrogen: InChIKey UFHFLCQGNIYNRP-UHFFFAOYSA-N
Temperature: 77 K
Tabular data in the source: 0
pressure (bar)	uptake (wt%)
0.00915472	0.150668
0.0229498	0.308899
0.0460116	0.497317
0.0667986	0.633008
0.0875997	0.753639
0.106077	0.874253
0.126892	0.979823
0.150052	1.06282
0.168564	1.14578
0.189407	1.22123
0.212567	1.30423
0.235748	1.36464
0.251965	1.41747
0.277469	1.47789
0.29601	1.53073
0.319197	1.58361
0.360925	1.68933
0.402682	1.76493
0.446761	1.84055
0.486194	1.91613
0.507065	1.96146
0.525626	1.99171
0.572044	2.05228
0.61149	2.11281
0.655584	2.17336
0.718246	2.25664
0.757714	2.29458
0.841282	2.38554
0.883066	2.43102
0.989864	2.52967
1.0363	2.56765
