Adsorption isotherm of Nitrogen on PCN-26-ac
DOI: 10.1021/Cm2008889
Adsorbate Nitrogen: InChIKey IJGRMHOSHXDMSA-UHFFFAOYSA-N
Temperature: 273 K
Tabular data in the source: 0
pressure (bar)	uptake (cm3(STP)/g)
0.0447692	2.73767
0.123718	3.31691
0.215837	4.98906
0.38426	6.15231
0.573748	8.41204
0.752689	9.03657
0.873746	10.1784
1.00532	10.7814
1.05533	11.891
