Adsorption isotherm of Methane on PCN-26-ac
DOI: 10.1021/Cm2008889
Adsorbate Methane: InChIKey VNWKTOKETHGBQD-UHFFFAOYSA-N
Temperature: 195 K
Tabular data in the source: 0
pressure (bar)	uptake (cm3(STP)/g)
0.0340441	22.1779
0.0656373	38.8034
0.0947526	44.3211
0.119033	52.6228
0.145738	60.9213
0.177291	69.2136
0.196723	77.5216
0.225852	85.817
0.254981	94.1124
0.281672	99.6332
0.305953	107.935
0.332651	114.845
0.361773	121.751
0.388477	130.05
0.415169	135.57
0.439436	141.094
0.468565	149.39
0.495256	154.911
0.52194	159.043
0.548638	165.952
0.57533	171.473
0.599597	176.997
0.626281	181.129
0.652979	188.039
0.682081	190.778
0.711183	193.518
0.735443	197.653
0.759704	201.788
0.788819	207.306
0.813073	210.052
0.842175	212.792
0.866428	215.538
0.893106	218.281
0.922221	223.799
0.951323	226.539
0.978001	229.282
1.00468	232.025
1.03136	234.768
1.05561	237.514
1.07986	238.872
