Adsorption isotherm of Nitrogen on PCN-26-ac
DOI: 10.1021/Cm2008889
Adsorbate Nitrogen: InChIKey IJGRMHOSHXDMSA-UHFFFAOYSA-N
Temperature: 77 K
Tabular data in the source: 0
pressure (bar)	uptake (cm3(STP)/g)
0.00684797	0.00684797
0.00913063	72.7528
0.0251092	483.708
0.0410878	491.573
0.079893	503.371
0.10272	509.27
0.139242	513.202
0.178047	519.101
0.239679	523.034
0.278484	523.034
0.321855	525
0.36066	526.966
0.397182	526.966
0.461097	526.966
0.520446	528.933
0.582078	530.899
0.623166	528.933
0.680232	530.899
0.739581	530.899
0.801213	530.899
0.860562	532.865
0.949586	532.865
