Adsorption isotherm of Methane on PCN-26-ac
DOI: 10.1021/Cm2008889
Adsorbate Methane: InChIKey VNWKTOKETHGBQD-UHFFFAOYSA-N
Temperature: 298 K
Tabular data in the source: 0
pressure (bar)	uptake (cm3(STP)/g)
0.0493351	2.89544
0.0939717	5.14745
0.13156	5.79088
0.202039	7.72118
0.714185	19.3029
0.93032	23.807
1.01724	25.0938
1.04074	25.0938
