Adsorption isotherm of Hydrogen on PCN-26-ac
DOI: 10.1021/Cm2008889
Adsorbate Hydrogen: InChIKey UFHFLCQGNIYNRP-UHFFFAOYSA-N
Temperature: 87 K
Tabular data in the source: 0
pressure (bar)	uptake (wt%)
0.0274763	0.129532
0.0449612	0.224501
0.134884	0.518332
0.259776	0.786582
0.397157	1.03769
0.661928	1.38466
0.916708	1.63672
