Adsorption isotherm of Hydrogen on PCN-26-ac
DOI: 10.1021/Cm2008889
Adsorbate Hydrogen: InChIKey UFHFLCQGNIYNRP-UHFFFAOYSA-N
Temperature: 77 K
Tabular data in the source: 0
pressure (bar)	uptake (wt%)
0.0524547	0.569389
0.134884	1.00971
0.194832	1.23433
0.284754	1.49368
0.379672	1.70997
0.462101	1.8658
0.542032	2.013
0.656933	2.1691
0.774331	2.3166
0.929198	2.46441
1.02911	2.56004
