Adsorption isotherm of Methane on PCN-26-ac
DOI: 10.1021/Cm2008889
Adsorbate Methane: InChIKey VNWKTOKETHGBQD-UHFFFAOYSA-N
Temperature: 298 K
Tabular data in the source: 0
pressure (bar)	uptake (cm3(STP)/g)
0.0632723	3.01887
0.0885988	3.39623
0.118976	4.5283
0.139244	4.5283
0.177213	6.03774
0.202532	6.79245
0.346858	10.566
0.372185	10.9434
0.405104	11.6981
0.43043	12.0755
0.63301	16.6038
0.658336	16.9811
0.746967	18.8679
0.772285	19.6226
0.921711	21.8868
0.944504	22.2642
0.977423	23.0189
1.00275	23.3962
