Adsorption isotherm of Carbon Dioxide on PCN-26-ac
DOI: 10.1021/Cm2008889
Adsorbate Carbon Dioxide: InChIKey CURLTUGMZLYLDI-UHFFFAOYSA-N
Temperature: 195 K
Tabular data in the source: 0
pressure (bar)	uptake (cm3(STP)/g)
0.0485971	430.892
0.130445	449.46
0.39645	461.217
0.667571	460.42
0.931019	469.05
