Adsorption isotherm of Hydrogen on PCN-26-ac
DOI: 10.1021/Cm2008889
Adsorbate Hydrogen: InChIKey UFHFLCQGNIYNRP-UHFFFAOYSA-N
Temperature: 77 K
Tabular data in the source: 0
pressure (bar)	uptake (mmol/g)
0.233766	0.233766
0.467532	2.76998
0.701299	5.43133
1.16883	6.73485
1.4026	8.03837
2.1039	9.07032
2.57143	10.048
3.50649	10.8627
4.67532	11.623
5.61039	12.1662
7.24675	12.7093
8.88312	13.0895
10.5195	13.4697
12.3896	13.6869
14.4935	13.9042
16.1299	14.1215
18.4675	14.2301
20.3377	14.3387
22.2078	14.5016
24.0779	14.556
26.1818	14.556
28.2857	14.6646
30.1558	14.6103
32.026	14.6646
34.3636	14.6103
36.4675	14.6103
38.5714	14.6103
41.3766	14.556
46.2857	14.5016
48.8571	14.393
51.4286	14.3387
53.7662	14.2844
56.3377	14.1758
58.9091	14.1215
61.2468	14.0671
63.8182	13.9585
66.6234	13.8499
69.1948	13.7956
71.7662	13.6869
74.3377	13.5783
77.3766	13.4697
79.9481	13.3611
82.5195	13.3611
85.7922	13.1438
88.5974	13.0895
90.9351	12.9809
