Adsorption isotherm of Carbon Dioxide on PCN-26-ac
DOI: 10.1021/Cm2008889
Adsorbate Carbon Dioxide: InChIKey CURLTUGMZLYLDI-UHFFFAOYSA-N
Temperature: 298 K
Tabular data in the source: 0
pressure (bar)	uptake (cm3(STP)/g)
0.117465	18.9812
0.251374	37.319
0.300709	42.4665
0.347695	47.6139
0.422873	55.3351
0.469859	60.4826
0.540337	67.2386
0.613165	73.9946
0.657802	78.1769
0.732979	83.6461
0.803458	90.0804
0.902128	97.8016
0.991402	104.236
1.03839	107.453
