Adsorption isotherm of Carbon Dioxide on PCN-26-ac
DOI: 10.1021/Cm2008889
Adsorbate Carbon Dioxide: InChIKey CURLTUGMZLYLDI-UHFFFAOYSA-N
Temperature: 273 K
Tabular data in the source: 0
pressure (bar)	uptake (cm3(STP)/g)
0.050108	16.8705
0.0685658	22.8571
0.0870236	28.8438
0.110726	34.2893
0.129176	39.7324
0.152878	45.1779
0.173947	50.0788
0.197635	54.4373
0.216079	59.337
0.237148	64.2378
0.263461	68.5976
0.276639	72.4079
0.302945	76.2242
0.321382	80.5803
0.360866	88.2069
0.408213	94.7501
0.447683	101.29
0.495051	109.463
0.537132	114.917
0.573976	121.456
0.621323	127.999
0.660779	133.451
0.7055	139.993
0.758091	145.996
0.810696	153.085
0.85277	157.995
0.894851	163.449
0.91851	165.633
0.978992	172.726
1.04211	180.363
