Adsorption isotherm of Hydrogen on PCN-26-ac
DOI: 10.1021/Cm2008889
Adsorbate Hydrogen: InChIKey UFHFLCQGNIYNRP-UHFFFAOYSA-N
Temperature: 87 K
Tabular data in the source: 0
pressure (bar)	uptake (wt%)
0.0449612	0.302088
0.129888	0.552774
0.397157	1.02907
0.664426	1.35882
0.9267	1.61094
