Adsorption isotherm of Carbon Dioxide on PCN-26-ac
DOI: 10.1021/Cm2008889
Adsorbate Carbon Dioxide: InChIKey CURLTUGMZLYLDI-UHFFFAOYSA-N
Temperature: 273 K
Tabular data in the source: 0
pressure (bar)	uptake (cm3(STP)/g)
0.053898	15.8228
0.0718749	20.2532
0.0898518	24.6835
0.105244	29.7468
0.123221	34.1772
0.138622	38.6076
0.156599	43.038
0.174567	48.1013
0.192544	52.5316
0.213105	56.3291
0.23109	60.1266
0.251644	64.557
0.269629	68.3544
0.290182	72.7848
0.310743	76.5823
0.331304	80.3797
0.349289	84.1772
0.372427	87.9747
0.392996	91.1392
0.413558	94.9367
0.434119	98.7342
0.454689	101.899
0.477834	105.063
0.50098	108.228
0.521549	111.392
0.588402	121.519
0.611548	124.684
0.632117	127.848
0.655263	131.013
0.678409	134.177
0.698978	137.342
0.722124	140.506
0.745278	143.038
0.768424	146.203
0.791578	148.734
0.814723	151.899
0.837877	154.43
0.861023	157.595
0.884177	160.127
0.907323	163.291
0.9279	165.823
0.951046	168.987
0.9742	171.519
0.997354	174.051
1.02308	177.215
1.04623	179.747
