Adsorption isotherm of Nitrogen on PCN-26-ac
DOI: 10.1021/Cm2008889
Adsorbate Nitrogen: InChIKey IJGRMHOSHXDMSA-UHFFFAOYSA-N
Temperature: 298 K
Tabular data in the source: 0
pressure (bar)	uptake (cm3(STP)/g)
0.0507735	0.754717
0.134544	2.26415
0.324973	3.77358
0.670285	6.41509
0.941961	8.67925
1.06132	8.67925
