Adsorption isotherm of Nitrogen on PCN-26-ac
DOI: 10.1021/Cm2008889
Adsorbate Nitrogen: InChIKey IJGRMHOSHXDMSA-UHFFFAOYSA-N
Temperature: 298 K
Tabular data in the source: 0
pressure (bar)	uptake (cm3(STP)/g)
0.10102	2.57373
0.140958	3.21716
0.413476	5.46917
0.573227	6.43432
0.709486	8.0429
0.838698	8.68633
0.944416	9.65147
0.998449	10.2949
1.05013	10.6166
