Adsorption isotherm of Methane on PCN-26-ac
DOI: 10.1021/Cm2008889
Adsorbate Methane: InChIKey VNWKTOKETHGBQD-UHFFFAOYSA-N
Temperature: 273 K
Tabular data in the source: 0
pressure (bar)	uptake (cm3(STP)/g)
0.0926726	5.6962
0.118419	6.96203
0.149318	8.22785
0.175073	8.86076
0.20854	10.7595
0.234295	11.3924
0.324423	14.557
0.35017	15.8228
0.440307	18.3544
0.466054	19.6203
0.496953	20.8861
0.522715	20.8861
0.556191	22.1519
0.581937	23.4177
0.612844	24.0506
0.636023	24.6835
0.728736	27.2152
0.754491	27.8481
0.78539	29.1139
0.811144	29.7468
0.84462	31.0127
0.867806	31.0127
0.903858	32.2785
0.927036	32.9114
1.03522	34.8101
1.079	36.0759
