Adsorption isotherm of Carbon Dioxide on PCN-26-ac
DOI: 10.1021/Cm2008889
Adsorbate Carbon Dioxide: InChIKey CURLTUGMZLYLDI-UHFFFAOYSA-N
Temperature: 298 K
Tabular data in the source: 0
pressure (bar)	uptake (cm3(STP)/g)
0.0479203	10.1887
0.133778	23.3962
0.396595	54.717
0.664566	81.8868
0.932554	108.302
