Adsorption isotherm of Methane on PCN-26-ac
DOI: 10.1021/Cm2008889
Adsorbate Methane: InChIKey VNWKTOKETHGBQD-UHFFFAOYSA-N
Temperature: 273 K
Tabular data in the source: 0
pressure (bar)	uptake (cm3(STP)/g)
0.0735744	4.38115
0.149767	8.22001
0.183929	10.4094
0.225975	13.1458
0.286385	14.8036
0.336293	16.4567
0.388834	18.6544
0.441368	20.3086
0.499146	21.4217
0.572713	25.2594
0.654129	26.9267
0.704037	28.5798
0.788093	31.3352
0.866883	33.0013
0.919409	34.1121
0.97195	36.3098
1.02448	37.4205
1.07701	39.0748
1.1663	40.2022
1.18206	41.2963
