Adsorption isotherm of Argon on PCN-26-ac
DOI: 10.1021/Cm2008889
Adsorbate Argon: InChIKey XKRFYHLGVUSROY-UHFFFAOYSA-N
Temperature: 87 K
Tabular data in the source: 0
pressure (bar)	uptake (cm3(STP)/g)
0.00501444	279.213
0.00675415	361.798
0.00850664	442.416
0.0110906	45.2247
0.0123442	202.528
0.0128303	127.809
0.0170772	525
0.0326578	580.056
0.0734514	609.551
0.11665	619.382
0.164389	631.18
0.212167	637.079
0.244045	637.079
0.275909	639.045
0.312315	642.978
0.351024	642.978
0.380612	644.944
0.419307	646.91
0.462557	648.876
0.501252	650.843
0.537684	650.843
0.576392	650.843
0.615088	652.809
0.656061	654.775
0.690215	654.775
0.733477	654.775
0.769896	656.742
0.808617	654.775
0.84959	656.742
0.888285	658.708
0.92473	656.742
