Adsorption isotherm of Nitrogen on PCN-26-ac
DOI: 10.1021/Cm2008889
Adsorbate Nitrogen: InChIKey IJGRMHOSHXDMSA-UHFFFAOYSA-N
Temperature: 298 K
Tabular data in the source: 0
pressure (bar)	uptake (cm3(STP)/g)
0.0507735	0.754717
0.132021	1.50943
0.396078	3.77358
0.675372	6.03774
0.941961	8.67925
