Adsorption isotherm of Methane on PCN-26-ac
DOI: 10.1021/Cm2008889
Adsorbate Methane: InChIKey VNWKTOKETHGBQD-UHFFFAOYSA-N
Temperature: 273 K
Tabular data in the source: 0
pressure (bar)	uptake (cm3(STP)/g)
0.13382	11.3924
0.401606	22.7848
0.666848	31.6456
0.932115	38.6076
