Adsorption isotherm of Carbon Dioxide on PCN-26-ac
DOI: 10.1021/Cm2008889
Adsorbate Carbon Dioxide: InChIKey CURLTUGMZLYLDI-UHFFFAOYSA-N
Temperature: 195 K
Tabular data in the source: 0
pressure (bar)	uptake (cm3(STP)/g)
0.00496926	24.9935
0.00750775	48.6013
0.0100732	77.7647
0.0126184	102.761
0.0175877	127.755
0.024981	152.745
0.0275329	179.131
0.0373502	204.118
0.0374849	231.896
0.0448849	258.275
0.0498542	283.268
0.0621763	324.919
0.071933	337.406
0.10121	376.257
0.115815	388.738
0.140122	402.595
0.161992	413.678
0.186273	421.98
0.205692	427.51
0.229959	433.034
0.246948	437.178
0.26636	441.32
0.280918	444.079
0.30033	448.22
0.317312	450.976
0.336711	452.339
0.370674	457.851
0.397352	460.594
0.424016	460.559
0.457973	464.681
0.513739	467.387
0.542861	474.293
0.598627	476.998
0.637425	479.726
0.661665	479.694
0.719849	481.007
0.775615	483.712
0.843501	486.402
0.940476	489.053
