Adsorption isotherm of Hydrogen on PCN-26-ac
DOI: 10.1021/Cm2008889
Adsorbate Hydrogen: InChIKey UFHFLCQGNIYNRP-UHFFFAOYSA-N
Temperature: 77 K
Tabular data in the source: 0
pressure (bar)	uptake (wt%)
0.047459	0.629694
0.134884	1.00971
0.397157	1.68424
0.666924	2.14332
0.934193	2.47307
