Adsorption isotherm of Carbon Dioxide on PCN-26-ac
DOI: 10.1021/Cm2008889
Adsorbate Carbon Dioxide: InChIKey CURLTUGMZLYLDI-UHFFFAOYSA-N
Temperature: 195 K
Tabular data in the source: 0
pressure (bar)	uptake (cm3(STP)/g)
0.0281352	40.6697
0.0383661	120.577
0.0588281	231.802
0.0767323	299.148
0.0844055	339.877
0.120214	388.361
0.168811	414.864
0.222524	430.38
0.309487	450.501
0.39645	461.217
0.542242	473.328
0.659898	482.387
0.795458	485.123
0.920788	491.024
