Adsorption isotherm of Methane on PCN-26-ac
DOI: 10.1021/Cm2008889
Adsorbate Methane: InChIKey VNWKTOKETHGBQD-UHFFFAOYSA-N
Temperature: 298 K
Tabular data in the source: 0
pressure (bar)	uptake (cm3(STP)/g)
0.0482021	2.26415
0.134472	5.66038
0.398394	14.3396
0.664903	20.7547
0.933967	26.4151
