Adsorption isotherm of Hydrogen on PCN-26-ac
DOI: 10.1021/Cm2008889
Adsorbate Hydrogen: InChIKey UFHFLCQGNIYNRP-UHFFFAOYSA-N
Temperature: 87 K
Tabular data in the source: 0
pressure (bar)	uptake (wt%)
0.0254554	0.113134
0.0439538	0.211158
0.0648039	0.279078
0.085654	0.346998
0.104173	0.422432
0.127354	0.482839
0.150542	0.535715
0.17373	0.588592
0.19227	0.641436
0.215465	0.686782
0.234005	0.739626
0.2572	0.784972
0.278085	0.815242
0.296632	0.860556
0.319834	0.898372
0.336065	0.936139
0.363914	0.973989
0.38713	0.996745
0.408001	1.04208
0.428886	1.07235
0.447447	1.1026
0.463685	1.13284
0.48457	1.1631
0.510103	1.19341
0.531002	1.20862
0.549556	1.2464
0.572765	1.27669
0.593657	1.29943
0.614542	1.3297
0.633103	1.35995
0.651686	1.36761
0.674887	1.40543
0.698096	1.43572
0.716679	1.44338
0.739894	1.46614
0.760779	1.49641
0.777031	1.51158
0.800254	1.52681
0.818815	1.55706
0.844362	1.57231
0.862923	1.60256
0.904721	1.63298
0.948829	1.67847
0.990634	1.70136
1.02545	1.73926
1.04171	1.75444
