Adsorption isotherm of Nitrogen on PCN-26-ac
DOI: 10.1021/Cm2008889
Adsorbate Nitrogen: InChIKey IJGRMHOSHXDMSA-UHFFFAOYSA-N
Temperature: 273 K
Tabular data in the source: 0
pressure (bar)	uptake (cm3(STP)/g)
0.103018	2.53165
0.180299	3.16456
0.247274	3.79747
0.345172	3.79747
0.497148	5.6962
0.62853	6.32911
0.767633	7.59494
0.942795	9.49367
1.04841	10.1266
