Adsorption isotherm of Carbon Dioxide on PCN-26-ac
DOI: 10.1021/Cm2008889
Adsorbate Carbon Dioxide: InChIKey CURLTUGMZLYLDI-UHFFFAOYSA-N
Temperature: 298 K
Tabular data in the source: 0
pressure (bar)	uptake (cm3(STP)/g)
0.0605795	10.566
0.0757164	13.5849
0.0934027	15.8491
0.113622	18.1132
0.131309	20.3774
0.14392	23.0189
0.159097	24.1509
0.179309	26.7925
0.196987	29.434
0.217199	32.0755
0.234885	34.3396
0.252571	36.6038
0.272783	39.2453
0.290469	41.5094
0.310689	43.7736
0.330909	46.0377
0.351129	48.3019
0.371348	50.566
0.389035	52.8302
0.409262	54.717
0.432024	56.6038
0.452251	58.4906
0.475004	60.7547
0.495232	62.6415
0.51546	64.5283
0.586253	71.3208
0.606472	73.5849
0.629234	75.4717
0.652003	76.9811
0.67223	78.8679
0.694992	80.7547
0.717753	82.6415
0.73798	84.5283
0.760742	86.4151
0.783511	87.9245
0.806272	89.8113
0.829041	91.3208
0.851802	93.2075
0.874563	95.0943
0.894791	96.9811
0.91756	98.4906
0.940321	100.377
0.96309	101.887
0.985851	103.774
1.00862	105.283
