Adsorption isotherm of Nitrogen on PCN-26-ac
DOI: 10.1021/Cm2008889
Adsorbate Nitrogen: InChIKey IJGRMHOSHXDMSA-UHFFFAOYSA-N
Temperature: 195 K
Tabular data in the source: 0
pressure (bar)	uptake (cm3(STP)/g)
0.0509382	6.87811
0.0630719	9.64009
0.0727747	11.0163
0.128554	16.4993
0.414704	39.7378
0.642616	50.5521
0.705661	54.6367
0.83901	60.0186
1.00145	65.3626
1.05478	66.682
