Adsorption isotherm of Nitrogen on Mo-Sal-AMP-Cu-BTC
DOI: 10.1039/c5nj00618j
Article source: Figure 6
Adsorbate Nitrogen: InChIKey IJGRMHOSHXDMSA-UHFFFAOYSA-N
Kind: experiment
Temperature: 77 K
Tabular data in the source: 0
pressure (bar)	uptake (ml/g)
0.031858	12.8806
0.051327	15.2225
0.097345	17.5644
0.145133	17.5644
0.19646	21.0773
0.246018	18.7354
0.286726	22.2482
0.299115	21.0773
0.346903	22.2482
0.39469	22.2482
0.497345	37.4707
0.499115	23.4192
0.59115	38.6417
0.59469	25.7611
0.690265	43.3255
0.699115	25.7611
0.79469	29.274
0.79823	46.8384
0.895575	52.6932
0.897345	40.9836
0.985841	56.2061
