Adsorption isotherm of Nitrogen on CuBTC
DOI: 10.1039/c5nj00618j
Article source: Figure 6
Adsorbate Nitrogen: InChIKey IJGRMHOSHXDMSA-UHFFFAOYSA-N
Kind: experiment
Temperature: 77 K
Tabular data in the source: 0
pressure (bar)	uptake (ml/g)
0.037168	259.953
0.049557	264.637
0.095575	270.492
0.104425	270.492
0.146903	274.005
0.150442	275.176
0.19646	279.859
0.20177	277.518
0.244248	281.03
0.295575	284.543
0.299115	284.543
0.350442	283.372
0.385841	288.056
0.39823	288.056
0.497345	290.398
0.499115	306.792
0.59823	310.304
0.60354	295.082
0.697345	316.159
0.699115	297.424
0.79823	303.279
0.8	318.501
0.893805	324.356
0.899115	316.159
0.987611	347.775
