Adsorption isotherm of Nitrogen on C40.59H1.74Zn30.04
DOI: 10.1002/anie.201005314
Adsorbate Nitrogen: InChIKey IJGRMHOSHXDMSA-UHFFFAOYSA-N
Temperature: 77 K
Tabular data in the source: 0
pressure (bar)	uptake (cm3(STP)/g)
0.0137497	58.4436
0.0340475	87.701
0.0812657	130.304
0.121579	138.376
0.158552	149.094
0.185428	154.475
0.252602	165.272
0.302983	173.371
0.353349	178.814
0.417138	184.293
0.464148	189.728
0.524567	192.543
0.601794	200.713
0.652175	208.811
0.695829	214.237
0.753129	259.522
0.800437	318.054
0.820764	352.621
0.851352	421.729
0.875035	456.305
0.902089	493.545
0.922328	512.183
0.949278	530.839
0.969486	544.167
0.996436	562.822
