Adsorption isotherm of Hydrogen on IRMOF-1
DOI: 10.1002/adma.200400946
Adsorbate Hydrogen: InChIKey UFHFLCQGNIYNRP-UHFFFAOYSA-N
Temperature: 77 K
Tabular data in the source: 0
pressure (bar)	uptake (wt%)
0.129534	0.0621762
0.259067	0.0103627
0.388601	0.663212
0.518135	0.823834
0.777202	0.911917
0.906736	0.974093
1.29534	1.04145
1.42487	1.1399
1.68394	1.21762
2.07254	1.26425
2.46114	1.31606
2.72021	1.35751
3.36788	1.40415
4.01554	1.4456
5.05181	1.47668
5.95855	1.50259
7.12435	1.5285
8.29016	1.54404
9.32642	1.56477
9.71503	1.56995
10.4922	1.56477
11.658	1.57513
12.9534	1.58031
14.2487	1.58549
15.4145	1.59067
16.7098	1.59585
18.0052	1.60104
19.0415	1.60104
20.3368	1.60622
21.6321	1.60622
22.9275	1.6114
24.0933	1.6114
25.3886	1.61658
26.6839	1.61658
27.9793	1.61658
29.2746	1.61658
30.5699	1.62176
31.8653	1.62176
33.1606	1.62176
34.456	1.62694
35.7513	1.62694
37.0466	1.62694
38.342	1.62694
39.6373	1.62694
40.9326	1.63212
45.0777	1.63212
46.3731	1.63212
47.6684	1.63212
48.9637	1.63212
