Adsorption isotherm of Hydrogen on IRMOF-1
DOI: 10.1002/adma.200400946
Adsorbate Hydrogen: InChIKey UFHFLCQGNIYNRP-UHFFFAOYSA-N
Temperature: 298 K
Tabular data in the source: 0
pressure (bar)	uptake (wt%)
4.88372	0.0126419
7.95866	0.0283765
10.491	0.0292165
30.0258	0.0993665
58.9664	0.150928
67.2868	0.170696
