Adsorption isotherm of Hydrogen on IRMOF-1
DOI: 10.1002/adma.200400946
Adsorbate Hydrogen: InChIKey UFHFLCQGNIYNRP-UHFFFAOYSA-N
Temperature: 77 K
Tabular data in the source: 0
pressure (bar)	uptake (wt%)
0.259067	0.0103627
1.81347	1.19171
2.33161	1.36788
3.88601	1.4715
9.58549	1.58549
18.7824	1.68912
41.9689	1.51295
43.7824	1.62176
