Adsorption isotherm of Hydrogen on IRMOF-1
DOI: 10.1002/adma.200400946
Adsorbate Hydrogen: InChIKey UFHFLCQGNIYNRP-UHFFFAOYSA-N
Temperature: 298 K
Tabular data in the source: 0
pressure (bar)	uptake (wt%)
1.44703	0.00159896
2.89406	0.00633109
4.52196	0.010284
5.96899	0.0142328
7.41602	0.0181816
8.32041	0.0229016
9.40568	0.0244925
11.0336	0.0276621
12.4806	0.0323942
13.9276	0.036343
15.1938	0.0402878
16.6408	0.0434534
18.0879	0.0481855
19.5349	0.0521343
21.1628	0.0560872
22.6098	0.060036
23.876	0.0647641
25.323	0.0687129
26.9509	0.0726658
28.3979	0.0766146
30.2067	0.0813549
31.6537	0.086087
33.2817	0.0900399
34.7287	0.0939887
36.1757	0.0979375
37.6227	0.10267
39.2506	0.106623
40.6977	0.110571
41.9638	0.113733
43.4109	0.118465
44.8579	0.122414
46.4858	0.126367
47.9328	0.131099
49.3798	0.134264
50.8269	0.138213
52.2739	0.142945
53.7209	0.146894
55.3488	0.150847
56.7959	0.155579
58.2429	0.158745
59.3282	0.161902
60.7752	0.166634
62.2222	0.170583
63.8501	0.175319
65.2972	0.179268
66.9251	0.183221
68.3721	0.187953
