Adsorption isotherm of Methane on SNU-21S
DOI: 10.1039/C0cc05199c
Adsorbate Methane: InChIKey VNWKTOKETHGBQD-UHFFFAOYSA-N
Temperature: 273 K
Tabular data in the source: 0
pressure (bar)	uptake (cm3(STP)/g)
0.074748	3.00606
0.112122	4.50909
0.157801	6.00796
0.215939	8.00784
0.261618	8.99947
0.307297	11.5128
0.365434	12.4982
0.415266	13.4878
0.473404	14.9804
0.51493	16.4813
0.568915	17.4688
0.618747	18.9656
0.672732	19.9531
0.718411	21.4519
0.768243	22.4415
0.818075	23.9383
0.867907	24.9278
0.921891	25.4081
0.971723	27.4121
1.01325	27.8986
