Adsorption isotherm of Carbon Dioxide on SNU-21H
DOI: 10.1039/C0cc05199c
Adsorbate Carbon Dioxide: InChIKey CURLTUGMZLYLDI-UHFFFAOYSA-N
Temperature: 195 K
Tabular data in the source: 0
pressure (bar)	uptake (cm3(STP)/g)
0.00470792	34.5374
0.00959808	82.0246
0.0134555	56.1294
0.0227954	119.808
0.0314671	136.005
0.0400477	145.726
0.0655312	156.545
0.074051	161.949
0.112155	169.544
0.150243	176.059
0.209411	180.439
0.260166	186.968
0.315081	189.184
0.365805	193.555
0.416514	196.846
0.467208	199.059
0.517901	201.271
0.564373	203.479
0.62351	205.7
0.665775	208.982
0.716469	211.195
0.771385	213.411
0.8263	215.628
0.86855	217.832
0.919259	221.123
0.969952	223.335
1.02065	225.547
