Adsorption isotherm of Hydrogen on SNU-21S
DOI: 10.1039/C0cc05199c
Adsorbate Hydrogen: InChIKey UFHFLCQGNIYNRP-UHFFFAOYSA-N
Temperature: 77 K
Tabular data in the source: 0
pressure (bar)	uptake (wt%)
0.704846	0.327731
1.05727	1.81513
4.93392	2.34454
9.86784	2.7479
15.5066	3
20.0881	3.22689
24.3172	3.42857
30.6608	3.70588
35.2423	3.85714
40.1762	4.05882
44.7577	4.23529
50.3965	4.41176
55.3304	4.61345
60.6167	4.81513
65.9031	4.96639
70.4846	5.14286
