Adsorption isotherm of Hydrogen on SNU-21S
DOI: 10.1039/C0cc05199c
Adsorbate Hydrogen: InChIKey UFHFLCQGNIYNRP-UHFFFAOYSA-N
Temperature: 77 K
Tabular data in the source: 0
pressure (bar)	uptake (wt%)
0.352423	0.453782
1.05727	1.81513
5.28634	2.31933
10.2203	2.62185
15.5066	2.84874
20.0881	3
25.022	3.17647
30.6608	3.37815
34.8899	3.47899
40.1762	3.63025
44.7577	3.7563
50.3965	3.88235
55.3304	4.0084
60.2643	4.13445
65.5507	4.23529
70.837	4.36134
