Adsorption isotherm of Methane on SNU-21H
DOI: 10.1039/C0cc05199c
Adsorbate Methane: InChIKey VNWKTOKETHGBQD-UHFFFAOYSA-N
Temperature: 273 K
Tabular data in the source: 0
pressure (bar)	uptake (cm3(STP)/g)
0.116275	4.50701
0.166107	6.0038
0.220091	8.00576
0.253313	8.49638
0.352976	11.49
0.490014	14.4648
0.614594	17.9532
0.672732	19.9531
0.693495	19.9427
0.739174	20.9343
0.818075	21.9093
0.867907	23.4061
0.930197	24.8967
0.971723	25.3831
1.01325	26.3768
