Adsorption isotherm of Carbon Dioxide on SNU-21H
DOI: 10.1039/C0cc05199c
Adsorbate Carbon Dioxide: InChIKey CURLTUGMZLYLDI-UHFFFAOYSA-N
Temperature: 298 K
Tabular data in the source: 0
pressure (bar)	uptake (cm3(STP)/g)
0.0263766	0.828072
0.0461428	1.94071
0.0658905	3.61515
0.0889479	5.00686
0.115297	6.67765
0.168013	9.45741
0.214128	12.2408
0.263543	15.0224
0.31625	18.0831
0.365675	20.5838
0.4184	23.0826
0.464524	25.5851
0.51394	28.3667
0.566675	30.5847
0.61609	33.3663
0.668834	35.3033
0.718277	37.2422
0.771012	39.4602
0.823756	41.3972
0.869899	43.3379
0.922643	45.275
0.972077	47.4947
1.01164	48.8773
