Adsorption isotherm of Hydrogen on SNU-21H
DOI: 10.1039/C0cc05199c
Adsorbate Hydrogen: InChIKey UFHFLCQGNIYNRP-UHFFFAOYSA-N
Temperature: 298 K
Tabular data in the source: 0
pressure (bar)	uptake (wt%)
6.4	0.0128205
10.3111	0.0410256
15.2889	0.0769231
20.9778	0.112821
25.6	0.141026
30.2222	0.166667
35.5556	0.192308
40.5333	0.212821
45.1556	0.238462
50.4889	0.261538
55.8222	0.297436
60.0889	0.310256
65.0667	0.325641
70.0444	0.34359
