Adsorption isotherm of Hydrogen on SNU-21S
DOI: 10.1039/C0cc05199c
Adsorbate Hydrogen: InChIKey UFHFLCQGNIYNRP-UHFFFAOYSA-N
Temperature: 77 K
Tabular data in the source: 0
pressure (bar)	uptake (cm3(STP)/g)
0.00664426	14.6553
0.0199328	24.8109
0.026577	37.2127
0.0365434	46.2378
0.049832	56.3934
0.0564762	62.0346
0.0697648	69.9367
0.0797311	77.8351
0.0930197	84.6105
0.106308	90.2591
0.149496	104.955
0.199328	123.039
0.252482	137.746
0.305636	149.072
0.35879	157.019
0.408622	164.961
0.455132	174.027
0.511608	183.104
0.564762	187.67
0.617916	192.236
0.667748	196.799
0.720902	200.238
0.770734	204.801
0.820566	207.11
0.870398	210.545
0.926875	213.988
0.973384	215.167
1.01657	217.468
