Adsorption isotherm of Nitrogen on SNU-21H
DOI: 10.1039/C0cc05199c
Adsorbate Nitrogen: InChIKey IJGRMHOSHXDMSA-UHFFFAOYSA-N
Temperature: 77 K
Tabular data in the source: 0
pressure (bar)	uptake (cm3(STP)/g)
0.00317485	0.00317485
0.0063497	134.085
0.0126994	140.845
0.022224	148.732
0.0412731	154.366
0.0603222	156.62
0.0825461	160
0.107945	161.127
0.161917	165.634
0.20954	167.887
0.260338	171.268
0.31431	173.521
0.365108	175.775
0.415905	178.028
0.463528	180.282
0.517501	181.408
0.568298	183.662
0.615921	185.915
0.666719	188.169
0.720691	190.423
0.765139	192.676
0.819111	194.93
0.869909	196.056
0.917532	199.437
