Adsorption isotherm of Hydrogen on SNU-21S
DOI: 10.1039/C0cc05199c
Adsorbate Hydrogen: InChIKey UFHFLCQGNIYNRP-UHFFFAOYSA-N
Temperature: 298 K
Tabular data in the source: 0
pressure (bar)	uptake (wt%)
0.711111	0.00769231
1.77778	0.025641
5.33333	0.0589744
9.95556	0.0846154
16	0.107692
20.2667	0.125641
25.6	0.14359
30.2222	0.158974
35.2	0.174359
40.5333	0.192308
45.1556	0.2
50.4889	0.212821
55.4667	0.225641
60.4444	0.238462
65.0667	0.246154
70.4	0.25641
