Adsorption isotherm of Hydrogen on SNU-21H
DOI: 10.1039/C0cc05199c
Adsorbate Hydrogen: InChIKey UFHFLCQGNIYNRP-UHFFFAOYSA-N
Temperature: 298 K
Tabular data in the source: 0
pressure (bar)	uptake (wt%)
6.75556	0.00769231
9.95556	0.0128205
15.6444	0.0333333
20.2667	0.0564103
25.6	0.0794872
30.2222	0.0871795
35.5556	0.105128
40.8889	0.120513
45.5111	0.133333
50.8444	0.148718
55.8222	0.164103
64.7111	0.174359
70.4	0.187179
