Adsorption isotherm of Nitrogen on SNU-21H
DOI: 10.1039/C0cc05199c
Adsorbate Nitrogen: InChIKey IJGRMHOSHXDMSA-UHFFFAOYSA-N
Temperature: 298 K
Tabular data in the source: 0
pressure (bar)	uptake (cm3(STP)/g)
0.0494804	0.815262
0.0659832	0.806112
0.0857865	0.795132
0.122092	0.775002
0.158399	0.754872
0.211189	1.2874
0.267298	1.25629
0.316797	1.50974
0.366287	2.0441
0.419086	2.29573
0.468595	2.26828
0.521385	2.80081
0.567583	3.05609
0.620383	3.30771
0.679783	3.55568
0.722672	4.0937
0.775481	4.06442
0.818379	4.32153
0.871169	4.85406
0.923978	4.82478
