Adsorption isotherm of Oxygen on SNU-21H
DOI: 10.1039/C0cc05199c
Adsorbate Oxygen: InChIKey MYMOFIZGZYHOMD-UHFFFAOYSA-N
Temperature: 77 K
Tabular data in the source: 0
pressure (bar)	uptake (cm3(STP)/g)
0	193.803
0.000644043	203.944
0.00128809	218.592
0.00322021	227.606
0.00515234	234.366
0.0090166	240
0.0103047	242.254
0.0212534	250.141
0.0328462	255.775
0.0412187	258.028
0.0586079	263.662
0.0624722	263.662
0.0727768	267.042
0.0850137	269.296
0.0927422	271.549
0.110775	273.803
0.134605	278.31
0.161655	282.817
0.186128	286.197
0.208026	294.085
