Adsorption isotherm of Hydrogen on SNU-21S
DOI: 10.1039/C0cc05199c
Adsorbate Hydrogen: InChIKey UFHFLCQGNIYNRP-UHFFFAOYSA-N
Temperature: 298 K
Tabular data in the source: 0
pressure (bar)	uptake (wt%)
0.711111	0.00763688
1.77778	0.0331348
4.97778	0.0738837
9.95556	0.114576
15.6444	0.147586
20.2667	0.178077
25.6	0.208545
30.5778	0.239024
35.5556	0.261844
40.5333	0.292323
45.1556	0.317708
50.4889	0.337963
55.4667	0.360783
60.4444	0.383603
65.4222	0.408976
70.4	0.429243
