Adsorption isotherm of Hydrogen on SNU-21H
DOI: 10.1039/C0cc05199c
Adsorbate Hydrogen: InChIKey UFHFLCQGNIYNRP-UHFFFAOYSA-N
Temperature: 87 K
Tabular data in the source: 0
pressure (bar)	uptake (cm3(STP)/g)
0.0166107	7.9058
0.0398656	13.5655
0.0531541	18.0873
0.076409	24.8737
0.0863754	28.2651
0.102986	31.6638
0.149496	41.8564
0.199328	52.0526
0.24916	58.8686
0.302314	66.8151
0.352146	74.7578
0.408622	81.5812
0.458454	86.1436
0.508286	90.7061
0.564762	96.4027
0.614594	99.8384
0.664426	104.401
0.714258	106.71
0.767412	110.149
0.820566	112.462
0.87372	115.901
0.92023	119.333
0.970062	122.769
1.01325	122.817
