Adsorption isotherm of Hydrogen on SNU-21S
DOI: 10.1039/C0cc05199c
Adsorbate Hydrogen: InChIKey UFHFLCQGNIYNRP-UHFFFAOYSA-N
Temperature: 87 K
Tabular data in the source: 0
pressure (bar)	uptake (cm3(STP)/g)
0.026577	10.1704
0.0465098	19.2066
0.0697648	29.3734
0.0863754	36.1524
0.106308	41.8084
0.152818	53.1277
0.20265	66.7042
0.252482	78.0272
0.305636	88.2272
0.355468	96.1699
0.411944	102.993
0.46842	112.07
0.511608	117.752
0.564762	124.572
0.614594	130.261
0.667748	135.954
0.720902	140.52
0.770734	145.082
0.820566	149.645
0.87372	153.084
0.926875	157.65
1.01325	163.38
