Adsorption isotherm of Carbon Dioxide on SNU-21H
DOI: 10.1039/C0cc05199c
Adsorbate Carbon Dioxide: InChIKey CURLTUGMZLYLDI-UHFFFAOYSA-N
Temperature: 273 K
Tabular data in the source: 0
pressure (bar)	uptake (cm3(STP)/g)
0.0803991	13.0353
0.143834	20.6568
0.203063	29.353
0.249565	33.719
0.30032	40.2479
0.359487	44.6275
0.405989	48.9935
0.460951	54.4478
0.503231	58.8093
0.575095	65.3607
0.651196	72.9957
0.718762	74.1468
0.769471	77.4382
0.828609	79.6595
0.883539	82.9554
0.934203	83.0093
0.976452	85.2126
1.01026	87.4069
