Adsorption isotherm of Hydrogen on SNU-21H
DOI: 10.1039/C0cc05199c
Adsorbate Hydrogen: InChIKey UFHFLCQGNIYNRP-UHFFFAOYSA-N
Temperature: 77 K
Tabular data in the source: 0
pressure (bar)	uptake (wt%)
1.40969	1.91597
5.63877	2.4958
9.86784	2.87395
15.1542	3.15126
20.0881	3.37815
25.3744	3.63025
29.9559	3.85714
35.2423	4.05882
40.8811	4.2605
45.1101	4.41176
50.7489	4.56303
55.3304	4.68908
59.9119	4.78992
64.8458	4.91597
70.1322	4.96639
