Adsorption isotherm of Hydrogen on SNU-21H
DOI: 10.1039/C0cc05199c
Adsorbate Hydrogen: InChIKey UFHFLCQGNIYNRP-UHFFFAOYSA-N
Temperature: 77 K
Tabular data in the source: 0
pressure (bar)	uptake (wt%)
0.352423	0.957983
1.05727	1.94118
4.93392	2.47059
9.86784	2.77311
14.8018	3
20.4405	3.22689
25.7269	3.42857
29.6035	3.57983
34.8899	3.73109
40.8811	3.88235
44.7577	4.0084
50.3965	4.13445
54.978	4.18487
59.9119	4.28571
65.1982	4.31092
70.4846	4.36134
