Adsorption isotherm of Oxygen on SNU-21S
DOI: 10.1039/C0cc05199c
Adsorbate Oxygen: InChIKey MYMOFIZGZYHOMD-UHFFFAOYSA-N
Temperature: 77 K
Tabular data in the source: 0
pressure (bar)	uptake (cm3(STP)/g)
0.000644043	223.099
0.00128809	240
0.00257617	251.268
0.0045083	256.901
0.00837256	263.662
0.0103047	267.042
0.0161011	269.296
0.0225415	272.676
0.0289819	276.056
0.0334902	278.31
0.0425068	280.563
0.0508794	283.944
0.0592519	286.197
0.0631162	287.324
0.0727768	289.577
0.0856577	292.958
0.0933862	292.958
0.111419	298.592
0.124944	300.845
0.135249	303.099
0.149418	306.479
0.160367	309.859
0.171315	314.366
0.182908	320
0.190637	330.141
0.199653	341.408
