Adsorption isotherm of Hydrogen on SNU-21H
DOI: 10.1039/C0cc05199c
Adsorbate Hydrogen: InChIKey UFHFLCQGNIYNRP-UHFFFAOYSA-N
Temperature: 77 K
Tabular data in the source: 0
pressure (bar)	uptake (cm3(STP)/g)
0.00996639	11.2787
0.026577	28.1986
0.0365434	34.9702
0.0564762	46.26
0.0830533	63.1909
0.0996639	69.97
0.13953	84.6622
0.196006	99.3729
0.255804	114.087
0.302314	123.153
0.355468	131.1
0.401978	140.165
0.458454	143.608
0.508286	149.298
0.564762	153.867
0.614594	159.557
0.664426	162.992
0.767412	170.994
0.817244	173.303
0.870398	176.743
0.923552	179.055
0.973384	182.491
1.01325	183.662
