Adsorption isotherm of Methane on SNU-21H
DOI: 10.1039/C0cc05199c
Adsorbate Methane: InChIKey VNWKTOKETHGBQD-UHFFFAOYSA-N
Temperature: 195 K
Tabular data in the source: 0
pressure (bar)	uptake (cm3(STP)/g)
0.0332213	16.7225
0.037374	21.2856
0.0664426	30.9088
0.0955113	37.9957
0.112122	43.5671
0.153649	52.6767
0.207633	60.7656
0.253313	66.8297
0.31145	72.3803
0.361282	76.9206
0.402808	80.9578
0.460946	83.9721
0.519083	86.9865
0.564762	89.4999
0.618747	92.0091
0.668579	94.0131
0.718411	96.0172
0.768243	98.5285
0.830533	100.019
0.876212	102.025
0.921891	103.524
0.975876	104.511
1.01325	106.014
