Adsorption isotherm of Methane on SNU-21H
DOI: 10.1039/C0cc05199c
Adsorbate Methane: InChIKey VNWKTOKETHGBQD-UHFFFAOYSA-N
Temperature: 298 K
Tabular data in the source: 0
pressure (bar)	uptake (cm3(STP)/g)
0.0872059	1.47808
0.149496	2.96864
0.18687	2.94993
0.236702	3.93947
0.307297	4.91863
0.382045	5.8957
0.477556	7.36962
0.543999	8.8581
0.614594	9.83725
0.676884	10.3133
0.751632	11.2904
0.82638	11.7602
0.872059	13.2591
0.930197	13.7372
0.984181	14.7247
