Adsorption isotherm of Nitrogen on SNU-21S
DOI: 10.1039/C0cc05199c
Adsorbate Nitrogen: InChIKey IJGRMHOSHXDMSA-UHFFFAOYSA-N
Temperature: 77 K
Tabular data in the source: 0
pressure (bar)	uptake (cm3(STP)/g)
0.00317485	0.00317485
0.0063497	176.901
0.0126994	187.042
0.0190491	192.676
0.0317485	198.31
0.0476228	201.69
0.063497	203.944
0.0825461	208.451
0.10477	211.831
0.158743	214.085
0.212715	218.592
0.263513	220.845
0.317485	223.099
0.365108	224.225
0.415905	227.606
0.463528	228.732
0.514326	232.113
0.568298	233.239
0.619096	234.366
0.673068	235.493
0.714341	238.873
0.765139	241.127
0.819111	243.38
0.869909	246.761
0.917532	251.268
