Adsorption isotherm of Carbon Dioxide on SNU-21S
DOI: 10.1039/C0cc05199c
Adsorbate Carbon Dioxide: InChIKey CURLTUGMZLYLDI-UHFFFAOYSA-N
Temperature: 298 K
Tabular data in the source: 0
pressure (bar)	uptake (wt%)
0.213787	1.17021
1.08864	8.7234
2.55523	12.5532
5.47675	18.5106
10.0276	22.0213
15.5941	23.617
20.3353	24.8936
25.0715	25.4255
30.6314	26.0638
35.1626	26.7021
40.3081	26.9149
45.66	27.234
