Adsorption isotherm of Carbon Dioxide on SNU-21S
DOI: 10.1039/C0cc05199c
Adsorbate Carbon Dioxide: InChIKey CURLTUGMZLYLDI-UHFFFAOYSA-N
Temperature: 273 K
Tabular data in the source: 0
pressure (bar)	uptake (cm3(STP)/g)
0.0634809	10.859
0.109998	16.3042
0.148102	23.8987
0.203093	31.5113
0.262292	38.0491
0.304602	44.569
0.359548	48.9441
0.406096	56.5476
0.461042	60.9227
0.511751	64.2141
0.613199	72.9552
0.668129	76.2511
0.714631	80.6172
0.769547	82.834
0.820271	87.2045
0.870934	87.2585
0.921643	90.5499
0.972367	94.9205
1.01459	94.9655
