Adsorption isotherm of Methane on SNU-21S
DOI: 10.1039/C0cc05199c
Adsorbate Methane: InChIKey VNWKTOKETHGBQD-UHFFFAOYSA-N
Temperature: 195 K
Tabular data in the source: 0
pressure (bar)	uptake (cm3(STP)/g)
0.012458	6.58797
0.0207633	11.6563
0.0290686	18.7536
0.037374	24.8364
0.049832	32.9461
0.0664426	36.9957
0.0830533	41.0454
0.0872059	45.6085
0.112122	49.1468
0.153649	59.2709
0.207633	68.3743
0.261618	75.956
0.307297	81.5128
0.365434	85.5417
0.415266	90.082
0.465098	94.115
0.510778	97.6428
0.568915	100.657
0.618747	102.661
0.668579	105.68
0.718411	109.713
0.76409	110.704
0.818075	114.228
0.867907	117.247
0.921891	119.249
0.975876	121.758
