Adsorption isotherm of Carbon Dioxide on SNU-21S
DOI: 10.1039/C0cc05199c
Adsorbate Carbon Dioxide: InChIKey CURLTUGMZLYLDI-UHFFFAOYSA-N
Temperature: 195 K
Tabular data in the source: 0
pressure (bar)	uptake (cm3(STP)/g)
0.00920322	53.9666
0.0096892	88.4995
0.00988663	102.529
0.0230992	141.392
0.0275185	155.425
0.0360687	162.988
0.0573455	174.881
0.0785463	181.379
0.112413	187.89
0.158976	196.572
0.205508	203.097
0.256232	207.467
0.315446	215.084
0.361932	218.371
0.412641	221.662
0.471809	226.042
0.522518	229.333
0.56899	231.541
0.615477	234.828
0.670407	238.124
0.721131	242.495
0.759159	244.693
0.830978	248.007
0.881671	250.22
0.919699	252.418
0.970408	255.71
1.0211	257.922
