Adsorption isotherm of Nitrogen on SNU-21S
DOI: 10.1039/C0cc05199c
Adsorbate Nitrogen: InChIKey IJGRMHOSHXDMSA-UHFFFAOYSA-N
Temperature: 298 K
Tabular data in the source: 0
pressure (bar)	uptake (cm3(STP)/g)
0.0956872	0.81617
0.11549	0.81068
0.145214	0.240642
0.191393	1.07054
0.247493	1.33588
0.293691	1.60397
0.316785	1.87847
0.34318	2.15205
0.392688	2.13833
0.445487	2.40459
0.498304	2.10905
0.521389	2.66445
0.617086	3.19971
0.650091	3.19056
0.669885	3.46598
0.719383	3.73315
0.772182	3.99941
0.82169	3.98569
0.874489	4.25195
0.923997	4.23823
