Adsorption isotherm of Carbon Dioxide on SNU-21H
DOI: 10.1039/C0cc05199c
Adsorbate Carbon Dioxide: InChIKey CURLTUGMZLYLDI-UHFFFAOYSA-N
Temperature: 298 K
Tabular data in the source: 0
pressure (bar)	uptake (wt%)
0.00656685	0.957447
0.879958	8.29787
2.14517	12.766
4.85217	17.4468
10.4311	20.8511
15.3796	22.3404
20.3229	23.0851
25.0584	23.5106
30.4125	24.1489
35.9717	24.6809
40.0884	24.8936
