Adsorption isotherm of Methane on SNU-21S
DOI: 10.1039/C0cc05199c
Adsorbate Methane: InChIKey VNWKTOKETHGBQD-UHFFFAOYSA-N
Temperature: 298 K
Tabular data in the source: 0
pressure (bar)	uptake (cm3(STP)/g)
0.0581373	1.49263
0.116275	2.47802
0.161954	3.46965
0.211786	3.95195
0.269923	5.44458
0.315602	5.92896
0.361282	6.41334
0.415266	7.40081
0.465098	7.88311
0.519083	8.87057
0.564762	10.3694
0.614594	10.3445
0.676884	11.3278
0.722564	11.8122
0.772395	12.2945
0.818075	13.7934
0.872059	14.2736
0.930197	15.259
0.971723	15.7454
1.0091	16.234
