Adsorption isotherm of Carbon Dioxide on SNU-21S
DOI: 10.1039/C0cc05199c
Adsorbate Carbon Dioxide: InChIKey CURLTUGMZLYLDI-UHFFFAOYSA-N
Temperature: 298 K
Tabular data in the source: 0
pressure (bar)	uptake (cm3(STP)/g)
0.0131837	0.554488
0.046115	2.78342
0.0691539	4.73694
0.0889201	5.84957
0.11526	7.80126
0.167957	11.1428
0.217354	14.4862
0.263451	17.8315
0.316167	20.6112
0.365573	23.6737
0.41827	27.0153
0.464395	29.5178
0.517101	32.5785
0.569818	35.3582
0.615942	37.8607
0.665348	40.9232
0.718083	43.1412
0.770817	45.3591
0.820242	47.8598
0.869676	50.0796
0.91911	52.2994
0.971854	54.2364
1.01469	56.4599
