Adsorption isotherm of Methane on SNU-21S
DOI: 10.1039/C0cc05199c
Adsorbate Methane: InChIKey VNWKTOKETHGBQD-UHFFFAOYSA-N
Temperature: 298 K
Tabular data in the source: 0
pressure (bar)	uptake (cm3(STP)/g)
0.224719	0.282051
0.449438	0.615385
0.898876	1.87179
5.16854	3.64103
10.1124	4.51282
15.0562	5.07692
20	5.4359
24.7191	5.66667
30.3371	5.94872
35.0562	6.07692
40	6.20513
46.9663	6.30769
50.5618	6.38462
