Adsorption isotherm of Methane on SNU-21H
DOI: 10.1039/C0cc05199c
Adsorbate Methane: InChIKey VNWKTOKETHGBQD-UHFFFAOYSA-N
Temperature: 298 K
Tabular data in the source: 0
pressure (bar)	uptake (wt%)
0.224719	0.410256
1.34831	1.02564
3.14607	1.89744
4.26966	2.38462
4.7191	2.66667
7.19101	3.05128
10.3371	3.61538
15.5056	4.02564
17.7528	4.25641
20.4494	4.46154
24.9438	4.69231
28.3146	4.76923
30.5618	4.87179
32.809	4.94872
35.2809	5
37.9775	5.10256
40.4494	5.15385
43.5955	5.17949
44.9438	5.25641
47.8652	5.28205
49.8876	5.30769
