Adsorption isotherm of Hydrogen on Zn-TBCPPM
DOI: 10.1039/C2sc20601c
Adsorbate Hydrogen: InChIKey UFHFLCQGNIYNRP-UHFFFAOYSA-N
Temperature: 77 K
Tabular data in the source: 0
pressure (bar)	uptake (mg/g)
0.935799	10.7758
2.68327	22.5105
4.52216	31.0564
8.45192	37.8965
12.8641	41.5702
22.2228	47.3511
30.7699	52.1732
42.2269	56.4768
54.0675	60.5742
65.2026	60.9811
74.3012	58.7624
83.3329	54.4867
