Adsorption isotherm of Hydrogen on Zn-TBCPPM
DOI: 10.1039/C2sc20601c
Adsorbate Hydrogen: InChIKey UFHFLCQGNIYNRP-UHFFFAOYSA-N
Temperature: 298 K
Tabular data in the source: 0
pressure (bar)	uptake (mg/g)
0.398402	0.250859
4.73623	1.63895
11.0066	2.45285
21.2387	5.08966
32.0721	8.21704
42.4997	10.865
52.1304	13.0112
60.9941	15.57
70.8204	17.7274
80.4512	19.8736
