Adsorption isotherm of Nitrogen on Zn-TBCPPM
DOI: 10.1039/C2sc20601c
Adsorbate Nitrogen: InChIKey IJGRMHOSHXDMSA-UHFFFAOYSA-N
Temperature: 77 K
Tabular data in the source: 0
pressure (bar)	uptake (cm3(STP)/g)
0.012132	80.0561
0.0234773	273.046
0.0334578	527.03
0.0356188	563.79
0.0472106	634.656
0.0752848	691.161
0.123908	718.261
0.257142	753.064
0.404915	782.56
0.555172	812.193
0.754914	841.491
0.904991	868.061
1.05276	897.557
