Adsorption isotherm of Nitrogen on [Cu2(L-H4)*(H2O)2]*18DMF*5H2O
DOI: 10.1039/C2sc20601c
Adsorbate Nitrogen: InChIKey IJGRMHOSHXDMSA-UHFFFAOYSA-N
Temperature: 77 K
Tabular data in the source: 0
pressure (bar)	uptake (cm3(STP)/g)
0.00608496	61.4031
0.039448	81.5574
0.0696074	89.3219
0.114126	88.7153
0.210794	90.9749
0.315091	96.7073
0.412299	108.157
0.513393	101.499
0.655299	115.406
0.811565	120.941
0.960561	129.13
0.999791	164.874
