Adsorption isotherm of Methane on Zn-TBCPPM
DOI: 10.1039/C2sc20601c
Adsorbate Methane: InChIKey VNWKTOKETHGBQD-UHFFFAOYSA-N
Temperature: 298 K
Tabular data in the source: 0
pressure (bar)	uptake (mg/g)
0.930188	9.54365
5.43607	45.9241
11.5485	81.5505
20.5901	125.07
34.8801	168.264
45.8814	191.26
55.2399	212.175
63.8133	234.884
73.1839	256.743
83.8773	287.25
