Adsorption isotherm of Hydrogen on [Cu2(L-H4)*(H2O)2]*18DMF*5H2O
DOI: 10.1039/C2sc20601c
Adsorbate Hydrogen: InChIKey UFHFLCQGNIYNRP-UHFFFAOYSA-N
Temperature: 77 K
Tabular data in the source: 0
pressure (bar)	uptake (cm3(STP)/g)
0.0583932	31.9188
0.105811	44.9235
0.24704	67.211
0.30874	73.0431
0.414762	81.4015
0.505604	82.2969
0.60885	85.404
0.716942	87.5142
0.876786	93.2688
1.01686	96.739
