Adsorption isotherm of Hydrogen on Zn-TBCPPM
DOI: 10.1039/C2sc20601c
Adsorbate Hydrogen: InChIKey UFHFLCQGNIYNRP-UHFFFAOYSA-N
Temperature: 77 K
Tabular data in the source: 0
pressure (bar)	uptake (cm3(STP)/g)
0.0284179	23.2652
0.107094	65.8317
0.210642	113.867
0.311287	154.561
0.416328	186.939
0.526024	215.185
0.620796	240.149
0.727716	263.143
0.824687	283.949
1.02593	324.59
