Adsorption isotherm of Hydrogen on IRMOF-1
DOI: 10.1021/Jp0563538
Adsorbate Hydrogen: InChIKey UFHFLCQGNIYNRP-UHFFFAOYSA-N
Temperature: 77 K
Tabular data in the source: 0
pressure (bar)	uptake (wt%)
0.89606	1.24382
1.68261	1.81188
3.25572	2.41272
9.81035	3.62533
14.1364	4.01861
18.0692	4.25894
21.6087	4.32449
28.8187	4.44466
36.1599	4.4665
43.2389	4.40096
