Adsorption isotherm of Hydrogen on Carbon
DOI: 10.1021/Jp0563538
Adsorbate Hydrogen: InChIKey UFHFLCQGNIYNRP-UHFFFAOYSA-N
Temperature: 77 K
Tabular data in the source: 0
pressure (bar)	uptake (wt%)
0.37169	2.33625
1.55152	3.35222
3.12463	3.90936
5.3532	4.31356
10.9902	4.80516
17.4137	5.11104
24.2305	5.38415
35.2423	5.54802
45.2053	5.59171
62.2473	5.51524
