Adsorption isotherm of Hydrogen on IRMOF-8
DOI: 10.1021/Jp0563538
Adsorbate Hydrogen: InChIKey UFHFLCQGNIYNRP-UHFFFAOYSA-N
Temperature: 77 K
Tabular data in the source: 0
pressure (bar)	uptake (molecules/unitcell)
0.247794	26.8739
0.772163	58.9915
1.64611	84.9915
2.86964	103.956
4.79233	115.886
6.97721	126.286
9.24947	133.933
18.6881	137.603
30.3117	136.686
39.4881	131.792
