Adsorption isotherm of Hydrogen on IRMOF-1
DOI: 10.1021/Jp0563538
Adsorbate Hydrogen: InChIKey UFHFLCQGNIYNRP-UHFFFAOYSA-N
Temperature: 77 K
Tabular data in the source: 0
pressure (bar)	uptake (molecules/unitcell)
0.0730036	8.82684
0.597373	25.9563
3.21922	66.0268
5.4041	84.9915
7.76376	99.368
10.7352	109.768
14.4058	119.556
21.5722	129.039
30.1369	135.156
41.9352	136.992
