Adsorption isotherm of Hydrogen on IRMOF-8
DOI: 10.1021/Jp0563538
Adsorbate Hydrogen: InChIKey UFHFLCQGNIYNRP-UHFFFAOYSA-N
Temperature: 298 K
Tabular data in the source: 0
pressure (bar)	uptake (wt%)
1.81371	0.0749082
5.74648	0.118606
8.36833	0.118606
11.3835	0.173227
14.2675	0.206001
17.2826	0.238774
20.691	0.260622
24.2305	0.326169
27.5078	0.380791
30.523	0.468185
