Adsorption isotherm of Hydrogen on IRMOF-1
DOI: 10.1021/Jp0563538
Adsorbate Hydrogen: InChIKey UFHFLCQGNIYNRP-UHFFFAOYSA-N
Temperature: 298 K
Tabular data in the source: 0
pressure (bar)	uptake (wt%)
5.3532	0.0639838
12.0389	0.107681
18.8557	0.140454
26.328	0.195076
32.6204	0.238774
40.0927	0.326169
46.5162	0.369866
53.7263	0.424488
60.5431	0.457261
64.0826	0.490034
