Adsorption isotherm of Hydrogen on IRMOF-8
DOI: 10.1021/Jp0563538
Adsorbate Hydrogen: InChIKey UFHFLCQGNIYNRP-UHFFFAOYSA-N
Temperature: 77 K
Tabular data in the source: 0
pressure (bar)	uptake (wt%)
2.73135	2.72953
4.69774	3.06819
6.92631	3.31945
11.6456	3.55978
15.1851	3.60348
22.5263	3.59256
26.1969	3.60348
30.2608	3.6144
34.9801	3.54886
39.5683	3.46146
