Adsorption isotherm of Benzene on MOF/PUF (A)
DOI: 10.1021/Am303089g
Adsorbate Benzene: InChIKey UHOVQNZJYSORNB-UHFFFAOYSA-N
Temperature: 298 K
Tabular data in the source: 0
pressure (bar)	uptake (cm3(STP)/g)
0.000969308	0.135397
0.00161551	0.160291
0.00290792	0.242766
0.00420033	0.250532
0.00613894	0.259846
0.00840067	0.267601
0.0142166	0.276867
0.0336027	0.298418
0.0526658	0.313746
0.0652668	0.324486
0.0830373	0.3445
0.0979001	0.367662
