Adsorption isotherm of N-Hexane on PUF
DOI: 10.1021/Am303089g
Adsorbate N-Hexane: InChIKey VLKZOEOYAKHREP-UHFFFAOYSA-N
Temperature: 298 K
Tabular data in the source: 0
pressure (bar)	uptake (cm3(STP)/g)
0.00720138	0.00461339
0.0169747	0.0138761
0.0303487	0.0293365
0.0462946	0.0478899
0.0622405	0.0679996
0.0781865	0.0896658
0.0915604	0.112908
0.103391	0.134606
0.114708	0.157865
0.127053	0.185785
0.137855	0.213716
0.148657	0.240092
0.161517	0.274233
