Adsorption isotherm of Nitrogen on MOF/PUF (B)
DOI: 10.1021/Am303089g
Adsorbate Nitrogen: InChIKey IJGRMHOSHXDMSA-UHFFFAOYSA-N
Temperature: 77 K
Tabular data in the source: 0
pressure (bar)	uptake (mmol/g)
0.010091	4.75593
0.345434	5.36746
0.393063	5.41942
0.490234	5.57298
0.585499	5.72645
0.680776	5.97898
0.781738	5.98413
0.871282	6.08777
