Adsorption isotherm of Benzene on UiO-66
DOI: 10.1021/Am303089g
Adsorbate Benzene: InChIKey UHOVQNZJYSORNB-UHFFFAOYSA-N
Temperature: 298 K
Tabular data in the source: 0
pressure (bar)	uptake (cm3(STP)/g)
0.00129241	0.247455
0.00161551	0.235
0.00258482	0.297244
0.00290792	0.305022
0.00452343	0.315897
0.00710826	0.32676
0.0129241	0.33914
0.0197092	0.346838
0.0274638	0.352968
0.0465268	0.362071
0.0652668	0.369622
0.0836836	0.377176
