Adsorption isotherm of N-Hexane on UiO-66
DOI: 10.1021/Am303089g
Adsorbate N-Hexane: InChIKey VLKZOEOYAKHREP-UHFFFAOYSA-N
Temperature: 298 K
Tabular data in the source: 0
pressure (bar)	uptake (cm3(STP)/g)
0.00154315	0.301934
0.00257192	0.311264
0.0030863	0.319042
0.00514384	0.328365
0.00617261	0.336139
0.0154315	0.353188
0.0241761	0.362458
0.0385789	0.370129
0.0452658	0.376303
0.0606974	0.379296
0.0766433	0.385398
0.11265	0.391344
