Adsorption isotherm of N-Hexane on MOF/PUF (A)
DOI: 10.1021/Am303089g
Adsorbate N-Hexane: InChIKey VLKZOEOYAKHREP-UHFFFAOYSA-N
Temperature: 298 K
Tabular data in the source: 0
pressure (bar)	uptake (cm3(STP)/g)
0.000323102	0.0980505
0.000646206	0.147852
0.00129241	0.194537
0.00161551	0.206984
0.00193861	0.219431
0.00452343	0.23652
0.0100162	0.247347
0.0155089	0.255061
0.0245558	0.262732
0.0342489	0.267281
0.0436189	0.270278
0.0562199	0.277905
0.0665591	0.284003
0.0749598	0.287012
