Adsorption isotherm of Nitrogen on MOF/PUF (A)
DOI: 10.1021/Am303089g
Adsorbate Nitrogen: InChIKey IJGRMHOSHXDMSA-UHFFFAOYSA-N
Temperature: 77 K
Tabular data in the source: 0
pressure (bar)	uptake (mmol/g)
0.00632232	5.10249
0.345557	6.40771
0.389377	6.45948
0.48844	6.51407
0.585605	6.61809
0.684668	6.67268
0.783732	6.72727
0.878986	6.78166
