Adsorption isotherm of Benzene on PUF
DOI: 10.1021/Am303089g
Adsorbate Benzene: InChIKey UHOVQNZJYSORNB-UHFFFAOYSA-N
Temperature: 298 K
Tabular data in the source: 0
pressure (bar)	uptake (cm3(STP)/g)
0.0116317	0.0138641
0.019063	0.0262237
0.0245558	0.0323815
0.0310179	0.0447531
0.0361874	0.0540277
0.0423264	0.0632904
0.0487884	0.075662
0.0546043	0.0880415
0.059774	0.0988726
0.066236	0.112801
0.0710826	0.123636
0.0775447	0.13912
0.0827142	0.15462
0.088207	0.171673
0.094346	0.191831
0.101131	0.215093
0.10727	0.236807
