Adsorption isotherm of Nitrogen on UiO-66
DOI: 10.1021/Am303089g
Adsorbate Nitrogen: InChIKey IJGRMHOSHXDMSA-UHFFFAOYSA-N
Temperature: 77 K
Tabular data in the source: 0
pressure (bar)	uptake (mmol/g)
0.371242	14.1366
0.424586	14.1888
0.472216	14.2408
0.565547	14.1465
0.662682	14.0028
0.759846	14.1069
0.866517	14.0628
