Adsorption isotherm of Nitrogen on Ni-PTC
DOI: 10.1021/Cm301726k
Adsorbate Nitrogen: InChIKey IJGRMHOSHXDMSA-UHFFFAOYSA-N
Temperature: 273 K
Tabular data in the source: 0
pressure (bar)	uptake (cm3(STP)/g)
0.0575116	0.371745
0.0836533	0.368652
0.115023	0.364941
0.159464	0.485866
0.211747	0.605864
0.237889	0.602771
0.274487	0.724624
0.300629	0.721532
0.326771	0.844622
0.339841	0.843075
0.365983	0.966166
0.392125	0.83689
0.40781	0.961217
0.431337	0.958434
0.457479	1.08152
0.473164	1.07967
0.499305	1.07658
0.525447	1.19967
0.538518	1.19812
0.564659	1.32121
0.590801	1.31812
0.606486	1.31626
0.632628	1.43935
0.658769	1.56244
0.67184	1.43471
0.697982	1.5578
0.724123	1.55471
0.73458	1.42729
0.758108	1.67687
0.784249	1.67378
0.802548	1.7978
0.82869	1.79471
0.854832	1.79161
0.870517	1.91594
0.896658	1.91285
0.9228	1.90975
0.964627	2.03099
1.00384	2.15253
1.02998	2.14944
1.07442	2.14418
1.10056	2.26727
1.11625	2.26542
1.14239	2.26232
1.16853	2.38541
1.19467	2.38232
