Adsorption isotherm of Argon on Ni-PTC
DOI: 10.1021/Cm301726k
Adsorbate Argon: InChIKey XKRFYHLGVUSROY-UHFFFAOYSA-N
Temperature: 87 K
Tabular data in the source: 0
pressure (bar)	uptake (cm3(STP)/g)
0.00151461	55.5009
0.00338262	30.6187
0.0102362	71.7604
0.0225298	75.5761
0.0365904	77.4763
0.0506552	78.4195
0.0647116	81.2766
0.0805308	83.1751
0.0981129	84.1149
0.112174	86.015
0.127997	86.9565
0.142066	86.9428
0.154381	85.9739
0.168441	87.874
0.186019	89.7708
0.205364	89.7519
0.222946	90.6917
0.238774	90.6762
0.252838	91.6195
0.270425	91.6023
0.286244	93.5008
0.296804	91.5766
0.310861	94.4337
0.328447	94.4166
0.344283	92.4872
0.349546	95.3529
0.367128	96.2927
0.384719	95.3186
0.400538	97.2171
0.41812	98.1569
0.433948	98.1414
0.449771	99.0829
0.467357	99.0658
0.483185	99.0503
0.500763	100.947
0.518349	100.93
0.534177	100.914
0.546479	102.816
0.564061	103.756
0.57813	103.742
0.595712	104.682
0.613298	104.665
0.636152	106.557
0.653734	107.496
0.669557	108.438
0.697687	110.324
0.715269	111.264
0.731093	112.206
0.74164	113.152
0.759222	114.092
0.780313	116.942
0.796124	120.755
0.813698	123.608
0.829508	127.421
0.845319	131.233
0.859371	135.047
0.866377	141.739
0.869852	151.305
0.87509	159.912
0.878565	169.478
0.883799	179.042
0.887278	187.652
0.892512	197.216
0.895987	206.782
0.901221	216.346
0.9047	224.955
0.909934	234.519
0.913409	244.085
0.918647	252.693
0.922123	262.259
0.927356	271.823
0.930836	280.432
0.93607	289.996
0.939545	299.562
0.943024	308.171
0.948258	317.736
0.951733	327.302
0.956971	335.909
0.960446	345.475
0.967401	363.65
