Adsorption isotherm of Methane on Ni-PTC
DOI: 10.1021/Cm301726k
Adsorbate Methane: InChIKey VNWKTOKETHGBQD-UHFFFAOYSA-N
Temperature: 273 K
Tabular data in the source: 0
pressure (bar)	uptake (cm3(STP)/g)
0.03137	0.501021
0.0862674	0.999258
0.130708	1.12018
0.172535	1.49378
0.227432	1.99202
0.253574	2.11511
0.287558	2.48964
0.326771	2.86355
0.365983	2.98509
0.410424	3.2322
0.462707	3.85693
0.51499	4.10311
0.582959	4.34744
0.656155	4.96969
0.73458	5.33896
0.826076	5.83287
0.935871	6.45079
0.998611	6.69574
1.04567	6.94254
1.10841	7.31366
1.17899	7.30531
