Adsorption isotherm of Carbon Dioxide on Ni-PTC
DOI: 10.1021/Cm301726k
Adsorbate Carbon Dioxide: InChIKey CURLTUGMZLYLDI-UHFFFAOYSA-N
Temperature: 293 K
Tabular data in the source: 0
pressure (bar)	uptake (cm3(STP)/g)
0.00251825	0.987946
0.0124016	1.85329
0.0173623	2.5946
0.0297184	3.70714
0.042067	4.69623
0.0544155	5.68531
0.0618489	6.67383
0.0889732	8.15845
0.116113	9.88998
0.125981	10.5084
0.140772	11.2509
0.160486	12.1173
0.177742	12.9835
0.199928	14.0972
0.224564	15.0877
0.244263	15.7073
0.254124	16.2023
0.273815	16.6984
0.286133	17.1936
0.305824	17.6897
0.323065	18.309
0.342756	18.8051
0.364912	19.425
0.384603	19.9211
0.409216	20.5412
0.431365	21.0376
0.460901	21.7817
0.483042	22.1547
0.50519	22.6511
0.519951	22.8997
0.539634	23.2723
0.56424	23.769
0.596227	24.39
0.620818	24.6398
0.642966	25.1362
0.657727	25.3848
0.679868	25.7577
0.704459	26.0075
0.731522	26.5044
0.756113	26.7542
0.824986	27.7498
0.837281	27.8747
0.861872	28.1245
0.884006	28.3739
0.908596	28.6237
0.957786	29.2467
0.982369	29.373
1.0045	29.6224
1.05861	30.246
1.0832	30.4958
1.10532	30.6218
1.125	30.871
1.14958	30.9973
1.17172	31.3702
1.19876	31.4968
