Adsorption isotherm of Hydrogen on Ni-PTC
DOI: 10.1021/Cm301726k
Adsorbate Hydrogen: InChIKey UFHFLCQGNIYNRP-UHFFFAOYSA-N
Temperature: 87 K
Tabular data in the source: 0
pressure (bar)	uptake (cm3(STP)/g)
0.0048204	1.47493
0.0121015	2.65487
0.0193754	3.9823
0.0290884	5.45723
0.0388086	6.78466
0.0509895	7.81711
0.0607169	8.99705
0.0728905	10.177
0.0850714	11.2094
0.0996986	12.2419
0.111887	13.1268
0.126521	14.0118
0.143602	14.8968
0.160697	15.4867
0.180209	16.6667
0.229041	18.5841
0.258346	19.6165
0.290083	20.944
0.32428	21.9764
0.346268	22.5664
0.378026	23.4513
0.409792	24.1888
0.478208	25.8112
0.500203	26.2537
0.541747	27.1386
0.566188	27.5811
0.580851	27.8761
0.602853	28.1711
0.624848	28.6136
0.651728	29.2035
0.69084	29.7935
0.712842	30.0885
0.73973	30.531
0.81306	31.7109
0.837509	32.0059
0.930417	33.0383
0.998862	34.0708
1.02331	34.3658
1.04288	34.3658
1.06488	34.8083
1.08689	34.9558
1.11867	35.3982
1.14312	35.5457
1.1798	35.8407
