Adsorption isotherm of Hydrogen on Ni-PTC
DOI: 10.1021/Cm301726k
Adsorbate Hydrogen: InChIKey UFHFLCQGNIYNRP-UHFFFAOYSA-N
Temperature: 77 K
Tabular data in the source: 0
pressure (bar)	uptake (cm3(STP)/g)
0.00227309	3.53982
0.00943154	7.22714
0.0117046	10.767
0.0189136	13.4218
0.0310079	16.2242
0.0406631	18.8791
0.0528007	20.7965
0.0600674	22.2714
0.0746874	23.4513
0.0844076	24.7788
0.0941422	25.8112
0.106323	26.8437
0.12095	27.8761
0.135577	28.9086
0.145334	29.4985
0.157515	30.531
0.174588	31.5634
0.230723	34.2183
0.257574	35.3982
0.289325	36.4307
0.33084	37.9056
0.369923	39.0855
0.409005	40.2655
0.462751	41.7404
0.484746	42.1829
0.506741	42.6254
0.558063	43.6578
0.580057	44.1003
0.604491	44.6903
0.62894	44.9853
0.650927	45.5752
0.668037	45.8702
0.692485	46.1652
0.71448	46.6077
0.736482	46.9027
0.756038	47.1976
0.780479	47.6401
0.800035	47.9351
0.824484	48.2301
0.846486	48.5251
0.856271	48.5251
0.878266	48.9676
0.900268	49.2625
0.927177	49.2625
0.946718	49.8525
0.971167	50.1475
0.99563	50.1475
1.00051	50.4425
1.02496	50.7375
1.03964	50.59
1.06164	51.0324
1.08364	51.3274
1.10321	51.3274
1.11298	51.6224
1.13743	51.7699
1.15944	52.0649
1.18145	52.2124
