Adsorption isotherm of Carbon Dioxide on Ni-PTC
DOI: 10.1021/Cm301726k
Adsorbate Carbon Dioxide: InChIKey CURLTUGMZLYLDI-UHFFFAOYSA-N
Temperature: 273 K
Tabular data in the source: 0
pressure (bar)	uptake (cm3(STP)/g)
0.00261416	1.89244
0.0130708	5.17196
0.0261416	7.4417
0.0418266	9.71114
0.0575116	11.7282
0.0705824	13.4932
0.0888816	15.51
0.109795	17.5264
0.141165	19.6678
0.180377	22.0607
0.230046	24.5785
0.287558	26.843
0.363369	29.2315
0.413038	30.3612
0.454865	31.3657
0.51499	32.6205
0.57773	33.7487
0.650927	35.128
0.73458	36.0014
0.823462	37.2527
0.925414	38.2501
1.04044	39.3722
1.11363	40.1206
1.19729	40.7416
