Adsorption isotherm of Carbon Dioxide on {[Ni(bpe)2(N(CN)2)](N(CN)2)}n
DOI: 10.1038/Nmat1827
Adsorbate Carbon Dioxide: InChIKey CURLTUGMZLYLDI-UHFFFAOYSA-N
Temperature: 195 K
Tabular data in the source: 0
pressure (bar)	uptake (ml/g)
0.00167567	8.78431
0.00199564	2.82353
0.00351974	14.4314
0.00541855	19.0588
0.0138937	21.1765
0.0223983	22.7451
0.0373614	24
0.0459082	24.7843
0.0587451	25.6471
0.0715947	26.2745
0.0822929	26.9804
0.0972939	27.5294
0.105862	27.9216
0.13159	28.6275
0.157327	29.1765
0.18522	29.5686
0.208814	30.0392
0.238858	30.3529
0.260318	30.5882
0.288206	31.0588
0.311809	31.3725
0.337554	31.7647
0.365464	31.8431
0.39336	32.1569
0.41911	32.4706
0.449163	32.6275
0.472773	32.7843
0.498527	33.0196
0.526428	33.2549
0.580096	33.4902
0.631616	33.7255
0.687435	33.8824
0.738956	34.1176
0.794766	34.4314
0.839849	34.5882
0.897807	34.902
0.951479	35.0588
1.00514	35.3725
