Adsorption isotherm of Oxygen on {[Ni(bpe)2(N(CN)2)](N(CN)2)}n
DOI: 10.1038/Nmat1827
Adsorbate Oxygen: InChIKey MYMOFIZGZYHOMD-UHFFFAOYSA-N
Temperature: 77 K
Tabular data in the source: 0
pressure (bar)	uptake (ml/g)
0.00615121	1.34639
0.0139865	1.89945
0.0218203	2.71847
0.0290973	3.00406
0.0369356	3.02522
0.044211	3.57677
0.0520493	3.59793
0.060446	3.88655
0.0677244	3.90619
0.0761196	4.46076
0.083398	4.48041
0.0934758	4.50761
0.104112	4.80227
0.114188	5.09543
0.124827	4.85818
0.134904	5.15134
0.145541	5.18005
0.156179	5.20876
0.166817	5.23747
0.177453	5.53213
0.186971	5.55782
0.198168	5.58804
