Adsorption isotherm of Ethanol on {[Ni(bpe)2(N(CN)2)](N(CN)2)}n
DOI: 10.1038/Nmat1827
Adsorbate Ethanol: InChIKey LFQSCWFLJHTTHZ-UHFFFAOYSA-N
Temperature: 298 K
Tabular data in the source: 0
pressure (bar)	uptake (ml/g)
0.000888946	2.40263
0.00155432	4.80299
0.0031122	8.01028
0.00489723	9.62412
0.00668167	11.5039
0.00846788	12.5858
0.0120427	13.6859
0.0151704	14.7815
0.018075	15.6088
0.0214263	16.7066
0.0250011	17.8067
0.0272351	18.6272
0.0303639	19.1908
0.033045	20.0159
0.0366204	20.85
0.0399729	21.4159
0.0433247	22.2477
0.0460058	23.0728
0.0484639	23.6296
0.0513686	24.457
0.0544963	25.5525
0.0576239	26.648
0.060528	27.7413
0.0634321	28.8346
0.0676765	30.4733
0.0687926	31.2825
0.0714707	33.4373
