Adsorption isotherm of Acetone on {[Ni(bpe)2(N(CN)2)](N(CN)2)}n
DOI: 10.1038/Nmat1827
Adsorbate Acetone: InChIKey CSCPPACGZOOCGX-UHFFFAOYSA-N
Temperature: 298 K
Tabular data in the source: 0
pressure (bar)	uptake (ml/g)
0.00169643	4.79166
0.00340903	7.72166
0.00774024	9.3287
0.0146716	11.7404
0.02075	12.2882
0.0268285	12.8359
0.0311713	13.1132
0.0381141	14.1952
0.0467997	14.7497
0.0537495	15.0338
0.0606946	15.8498
0.0693825	16.1384
0.0780657	16.9589
0.0884869	17.784
0.0971748	18.0726
0.104125	18.3567
0.111074	18.6408
0.122365	19.4681
0.13105	20.0227
0.140605	20.5795
0.150162	20.8704
0.159711	21.9591
0.166661	22.2432
0.173606	23.0592
0.183161	23.616
0.192711	24.7048
0.202261	25.7935
0.210946	26.3481
0.22137	26.9072
0.229182	27.9914
0.24047	29.0847
0.243943	29.3597
0.253493	30.4484
0.262174	31.5349
0.269117	32.6168
0.276065	33.1669
