Adsorption isotherm of Xenon on {[Ni(bpe)2(N(CN)2)](N(CN)2)}n
DOI: 10.1038/Nmat1827
Adsorbate Xenon: InChIKey FHNFHKCVQCLJFQ-UHFFFAOYSA-N
Temperature: 195 K
Tabular data in the source: 0
pressure (bar)	uptake (ml/g)
0.510511	0.32942
0.935963	0.382308
1.16692	0.411019
1.39785	0.705683
1.84761	0.761594
2.06639	1.05475
2.29735	1.08346
2.52831	1.11217
2.74708	1.40532
2.99019	1.43554
3.20896	1.7287
3.42774	2.02185
3.64654	2.04905
3.841	2.33918
4.07183	3.43171
