Adsorption isotherm of Methanol on {[Ni(bpe)2(N(CN)2)](N(CN)2)}n
DOI: 10.1038/Nmat1827
Adsorbate Methanol: InChIKey OKKJLVBELUTLKV-UHFFFAOYSA-N
Temperature: 298 K
Tabular data in the source: 0
pressure (bar)	uptake (ml/g)
0.000645333	6.2423
0.001936	11.5446
0.002904	16.5158
0.005808	20.1586
0.00806667	23.1393
0.0119387	25.6208
0.0161333	27.2731
0.021296	28.427
0.0258133	29.9132
0.0303307	31.2336
0.0351707	32.2222
0.0400107	33.3765
0.0448507	34.5308
0.0496907	35.8508
0.0548533	36.839
0.0596933	37.9933
0.0645333	39.4791
0.068728	40.7999
0.073568	42.12
0.0780853	43.7719
0.0829253	45.2577
0.0864747	48.4025
0.0903467	50.221
0.093896	52.5371
0.0980907	54.8524
0.101317	57.6661
0.105189	59.9818
0.108416	63.2928
0.111643	65.9408
0.116483	67.2609
0.119387	71.5667
0.123259	73.8824
0.127453	75.8662
0.131648	77.5185
0.136165	78.839
0.14036	80.4913
0.144877	82.1433
0.149072	83.9613
0.152944	86.4428
