Adsorption isotherm of Nitrogen on {[Ni(bpe)2(N(CN)2)](N(CN)2)}n
DOI: 10.1038/Nmat1827
Adsorbate Nitrogen: InChIKey IJGRMHOSHXDMSA-UHFFFAOYSA-N
Temperature: 77 K
Tabular data in the source: 0
pressure (bar)	uptake (ml/g)
0.0110397	0.00906653
0.027592	0.288618
0.0634639	0.584035
0.0965831	0.611235
0.124183	0.633901
0.146262	0.652034
0.165574	0.933852
0.187654	0.951985
0.212493	0.972385
0.231798	1.52015
0.256637	1.54055
0.27871	1.82464
0.298022	2.10646
0.342181	2.14272
0.386333	2.44494
0.430492	2.48121
0.469116	3.04484
0.51326	3.61301
0.557405	4.18118
0.598782	5.01303
0.642933	5.31525
0.687085	5.61747
0.728469	6.18337
0.769839	7.28118
0.816736	8.11756
0.858113	8.94942
0.89949	9.78127
0.940852	11.145
