Adsorption isotherm of Water on {[Ni(bpe)2(N(CN)2)](N(CN)2)}n
DOI: 10.1038/Nmat1827
Adsorbate Water: InChIKey XLYOFNOQVPJJNP-UHFFFAOYSA-N
Temperature: 298 K
Tabular data in the source: 0
pressure (bar)	uptake (ml/g)
0.000178405	1.33428
0.000445655	3.73462
0.000712904	6.13496
0.000800555	8.53079
0.000978721	10.131
0.00160541	12.2744
0.00214182	14.9475
0.00267799	17.8866
0.00303504	20.2892
0.00339256	22.1599
0.00401901	24.5692
0.0044661	26.7082
0.00500275	29.1153
0.00554035	30.4586
0.00589788	32.3293
0.00643572	33.4067
0.00679349	35.0114
0.00733109	36.3547
0.0076891	37.6935
0.00849658	38.5117
0.00885387	40.6484
0.00948151	41.728
0.00983951	43.0668
0.0106463	44.6829
0.0115426	46.5671
0.0125285	48.7196
0.0136047	50.3424
0.0145012	51.9607
0.0149493	53.0358
0.0154871	54.1132
0.0162936	55.9952
0.0171895	58.4114
0.0179074	58.9614
0.0189819	62.4458
0.0198784	64.0642
0.0200569	65.3984
0.0207733	67.5441
0.0215801	69.1602
0.0222075	70.5058
0.0231924	73.722
0.0236395	75.861
0.0245354	78.2771
0.0252507	81.7526
0.0256961	85.7531
0.0266805	89.5013
0.0268575	92.4313
0.0272146	94.8339
0.027751	97.507
0.0279291	99.1072
0.0284648	102.578
