Adsorption isotherm of Carbon Dioxide on {[Ni(bpe)2(N(CN)2)](N3)}n
DOI: 10.1038/Nmat1827
Adsorbate Carbon Dioxide: InChIKey CURLTUGMZLYLDI-UHFFFAOYSA-N
Temperature: 195 K
Tabular data in the source: 0
pressure (bar)	uptake (ml/g)
0.00281821	12.4646
0.00563643	26.6289
0.0169093	29.2351
0.0225457	31.0482
0.039455	32.6346
0.0479096	34.221
0.0591825	34.7875
0.0704553	35.5807
0.0845464	36.2606
0.0986374	36.7139
0.112729	37.1671
0.140911	38.0737
0.166275	38.6402
0.18882	39.2068
0.219821	39.6601
0.242366	40.1133
0.26773	40.3399
0.295912	40.6799
0.321276	41.1331
0.34664	41.5864
0.372004	41.813
0.39455	42.153
0.422732	42.6062
0.453732	42.8329
0.47346	42.8329
0.501642	42.8329
0.558006	42.8329
0.608734	43.0595
0.66228	43.0595
0.721462	43.3994
0.77219	43.7394
0.828555	43.7394
0.879282	44.0793
0.935647	43.966
0.986374	44.0793
