Adsorption isotherm of Nitrogen on C72H42Ni3N6O13
DOI: 10.1039/C3sc22222e
Adsorbate Nitrogen: InChIKey IJGRMHOSHXDMSA-UHFFFAOYSA-N
Temperature: 77 K
Tabular data in the source: 0
pressure (bar)	uptake (cm3(STP)/g)
0.000357	0.00662608
0.0435793	0.186718
0.106612	0.456856
0.207463	0.636948
0.306514	0.636948
0.432578	0.546902
0.528027	0.456856
0.634281	0.276764
0.740535	0.186718
0.841387	0.00662608
0.936835	0.00662608
0.998067	0.276764
