Adsorption isotherm of Carbon Dioxide on C72H42Ni3N6O13
DOI: 10.1039/C3sc22222e
Adsorbate Carbon Dioxide: InChIKey CURLTUGMZLYLDI-UHFFFAOYSA-N
Temperature: 195 K
Tabular data in the source: 0
pressure (bar)	uptake (cm3(STP)/g)
0.0065614	0.330509
0.0065614	7.08961
0.0200796	12.8348
0.0290917	19.0307
0.0403569	24.5506
0.0606342	27.8175
0.0989358	31.7603
0.157515	35.1399
0.229612	38.4068
0.342263	40.9978
0.463927	42.6875
0.585591	44.152
0.723026	45.7291
0.84469	47.0809
0.903269	47.5315
