Adsorption isotherm of Methane on 446-MOF-Ni
DOI: 10.1002/chem.201500457
Article source: Figure 2b
Adsorbate Methane: InChIKey VNWKTOKETHGBQD-UHFFFAOYSA-N
Kind: experiment
Temperature: 195 K
Tabular data in the source: 0
pressure (bar)	uptake (cm3(STP)/g)
0	-0.163041
0.007473	0.324869
0.010594	1.79175
0.013473	0.813021
0.016482	1.13862
0.020979	1.46397
0.021092	2.60526
0.023955	1.46349
0.029955	1.95164
0.031589	3.41876
0.035972	2.60283
0.040469	2.92818
0.043607	4.55811
0.04495	3.0905
0.046454	3.2533
0.049446	3.41585
0.053959	3.90425
0.056951	4.0668
0.058617	5.86001
0.06444	4.55471
0.070425	4.87982
0.076425	5.36797
0.079434	5.69357
0.080938	5.85637
0.082588	7.48653
0.08393	6.01892
0.088411	6.18124
0.094395	6.50635
0.10038	6.83146
0.103389	7.15706
0.115552	9.76377
0.13632	9.10821
0.157444	12.0395
0.16922	10.7333
0.196361	14.3158
0.211096	12.846
0.238221	16.2655
0.251452	14.6329
0.277089	18.0526
0.290319	16.4201
0.315956	19.8398
0.332163	18.2067
0.3578	21.6264
0.371015	19.8308
0.398156	23.4133
0.412859	21.6175
0.435487	24.7116
0.453182	23.0783
0.477331	26.4983
0.492034	24.7024
0.517655	27.9591
0.532357	26.1632
0.55649	29.4201
0.569705	27.6245
0.595293	30.5551
0.610012	28.9223
0.637105	32.0157
0.650336	30.3831
0.675924	33.3137
0.690643	31.6809
0.717719	34.6112
0.730983	33.3047
0.758011	35.746
0.769802	34.6027
0.798318	37.0438
0.810125	36.0636
0.835633	38.179
0.851921	37.3611
0.877412	39.3135
0.889252	38.6594
0.916215	40.4484
0.932535	39.9567
0.957994	41.5829
0.971355	41.2547
0.992301	42.3926
