Adsorption isotherm of Nitrogen on Eu@446-MOF
DOI: 10.1002/chem.201500457
Article source: Figure 2a
Adsorbate Nitrogen: InChIKey IJGRMHOSHXDMSA-UHFFFAOYSA-N
Kind: experiment
Temperature: 77 K
Tabular data in the source: 0
pressure (bar)	uptake (cm3(STP)/g)
0	0
0.004565	1.69463
0.009119	2.53621
0.010828	17.8873
0.013674	3.37779
0.019947	20.4236
0.022772	4.20789
0.02883	4.19259
0.03057	22.1029
0.037928	5.02269
0.041183	22.9292
0.045511	5.85661
0.050281	23.7593
0.053095	6.69054
0.060667	6.67141
0.065448	25.4271
0.068251	7.50534
0.075834	8.33927
0.083643	27.0873
0.098573	9.98799
0.098799	27.9021
0.113719	9.94974
0.126072	28.6863
0.142517	11.5832
0.159402	29.4552
0.169788	12.3674
0.191218	30.2279
0.201614	13.9931
0.220005	31.0083
0.231917	14.7697
0.250306	31.7848
0.262218	15.5462
0.280596	31.7083
0.292529	17.1758
0.310898	32.4849
0.322831	17.9524
0.341199	33.2614
0.350103	18.7366
0.360705	18.7098
0.369803	19.5399
0.373015	34.0342
0.380404	19.5131
0.392542	21.1886
0.403316	34.8107
0.404659	21.158
0.409212	21.9996
0.421318	21.1159
0.433617	35.5872
0.436474	21.9307
0.444058	22.7647
0.45163	22.7455
0.457709	24.4363
0.463919	36.3638
0.466797	24.4134
0.474369	24.3943
0.481942	24.3751
0.49104	25.2052
0.49422	37.1403
0.498613	25.1861
0.506196	26.02
0.512255	26.0047
0.515294	26.8501
0.524511	37.0638
0.525896	26.8234
0.534994	27.6535
0.547109	27.6229
0.553179	28.4606
0.554822	38.6934
0.559247	29.2984
0.56378	28.4338
0.569839	28.4185
0.578937	29.2486
0.586509	29.2295
0.586627	38.6131
0.59711	29.2027
0.601665	30.0443
0.606208	30.0328
0.612266	30.0175
0.616821	30.8591
0.616928	39.3896
0.621364	30.8476
0.62593	32.5423
0.635017	32.5193
0.644104	32.4964
0.645716	40.17
0.650162	32.4811
0.656231	33.3188
0.660775	33.3073
0.66229	33.3035
0.668347	33.2882
0.675931	34.1221
0.676017	40.9466
0.677445	34.1183
0.685018	34.0992
0.692591	34.0801
0.697134	34.0686
0.703203	34.9063
0.707746	34.8949
0.709337	40.8624
0.710787	35.7403
0.713804	34.8796
0.722892	34.8566
0.722902	35.7097
0.731979	34.8337
0.733504	35.6829
0.738123	41.6428
0.741077	35.6638
0.74865	35.6446
0.750164	35.6408
0.757747	36.4747
0.759252	35.6178
0.76835	36.4479
0.768413	41.5663
0.775933	37.2819
0.777436	36.425
0.788059	38.1043
0.794096	36.3829
0.797146	38.0814
0.800229	42.339
0.806223	37.2054
0.806234	38.0584
0.816836	38.0316
0.822894	38.0163
0.825934	38.8617
0.830542	43.9686
0.83501	37.9857
0.839575	39.6804
0.844107	38.8158
0.847158	40.5143
0.854709	38.7891
0.859317	43.8959
0.860789	40.4799
0.86834	38.7546
0.872916	41.3023
0.877438	39.5847
0.882003	41.2794
0.888051	40.411
0.889629	45.5255
0.891101	42.1095
0.900166	40.3804
0.903217	42.0789
0.906247	42.0712
0.915322	41.1952
0.91687	43.7505
0.921445	46.2982
0.924432	42.8784
0.928996	44.573
0.93353	43.7085
0.938084	44.55
0.944141	44.5347
0.950211	45.3725
0.951736	46.2217
0.960801	44.4927
0.963841	45.3381
0.971414	45.3189
0.979008	47.0059
0.982004	44.4391
0.98354	46.1414
0.985034	44.4315
0.992628	46.1184
1.00021	46.9524
1.00174	47.8016
1.00778	46.9332
1.00779	47.7863
1.01384	46.9179
