Adsorption isotherm of Carbon Dioxide on 446-MOF-Ni
DOI: 10.1002/chem.201500457
Article source: Figure 2b
Adsorbate Carbon Dioxide: InChIKey CURLTUGMZLYLDI-UHFFFAOYSA-N
Kind: experiment
Temperature: 195 K
Tabular data in the source: 0
pressure (bar)	uptake (cm3(STP)/g)
0	0
0.001265	7.57512
0.001325	5.55489
0.00271	9.08954
0.00414	11.109
0.006955	16.6632
0.00703	14.1379
0.007075	12.6227
0.00825	23.2282
0.008385	18.6826
0.00983	20.1971
0.01117	25.2469
0.011245	22.7216
0.01263	26.2562
0.014075	27.7707
0.017011	29.2843
0.018456	30.7988
0.019796	35.8486
0.019871	33.3233
0.024267	35.8463
0.025667	38.8759
0.027112	40.3903
0.028557	41.9048
0.029987	43.9242
0.031418	45.9437
0.034398	45.9422
0.037198	52.0014
0.037289	48.9711
0.037334	47.4559
0.041699	50.989
0.043145	52.5035
0.04316	51.9984
0.04757	54.0164
0.04903	55.0257
0.050506	55.53
0.051966	56.5394
0.053351	60.0741
0.053426	57.5488
0.056377	58.5574
0.057837	59.5667
0.060773	61.0804
0.065213	62.0883
0.066659	63.6027
0.068044	67.1374
0.069609	64.6113
0.074035	66.1242
0.076971	67.6379
0.079921	68.6465
0.084272	72.6847
0.084347	70.1594
0.087282	71.6731
0.090218	73.1868
0.096134	74.6989
0.109367	80.7528
0.125685	83.2699
0.135967	88.3152
0.159737	90.8284
0.165608	93.8558
0.190853	96.8733
0.202656	100.908
0.221985	102.413
0.245664	107.957
0.250151	107.449
0.284217	114.503
0.293175	113.993
0.316854	119.537
0.331743	120.034
0.34356	123.564
0.370281	127.086
0.373201	129.104
0.401412	132.626
0.411709	137.166
0.426507	140.694
0.431761	164.428
0.437587	168.971
0.438083	202.304
0.442765	195.231
0.461552	214.918
0.465963	216.936
0.498735	217.425
0.506142	218.936
0.54039	219.929
0.547811	220.935
0.580583	221.424
0.584994	223.442
0.622253	223.423
0.626679	224.936
0.660956	224.919
0.665397	225.927
0.702656	225.908
0.705606	226.916
0.739869	227.404
0.74431	228.412
0.781553	228.898
0.784504	229.907
0.820241	230.899
0.824712	230.897
0.86042	232.899
0.866382	232.896
0.902135	233.383
0.905115	233.381
0.940838	234.878
0.9468	234.875
0.973611	235.367
0.981047	235.868
