Adsorption isotherm of Nitrogen on 446-MOF
DOI: 10.1002/chem.201500457
Article source: Figure 2a
Adsorbate Nitrogen: InChIKey IJGRMHOSHXDMSA-UHFFFAOYSA-N
Kind: experiment
Temperature: 77 K
Tabular data in the source: 0
pressure (bar)	uptake (cm3(STP)/g)
0	0
0.000345	10.237
0.000948	28.1517
0.00155	46.0664
0.002096	62.2749
0.003015	89.5735
0.004185	79.3365
0.004989	103.223
0.005506	118.578
0.009138	136.493
0.010911	144.171
0.012741	153.555
0.013344	171.469
0.014543	162.085
0.01666	180
0.021462	187.678
0.022518	174.028
0.02775	194.502
0.02892	184.265
0.034096	203.033
0.03841	196.209
0.042013	213.27
0.049299	204.739
0.051388	221.801
0.059248	230.332
0.060274	215.829
0.070166	239.716
0.074307	227.773
0.079684	252.512
0.086826	239.716
0.092518	273.839
0.096516	257.63
0.106437	282.37
0.110068	300.284
0.122875	320.758
0.123987	308.815
0.141278	327.583
0.143138	337.82
0.164342	337.82
0.170831	350.616
0.187176	341.232
0.201266	354.882
0.210009	344.645
0.224071	357.441
0.238843	346.351
0.25142	360
0.261677	349.763
0.272681	361.706
0.290539	352.322
0.301544	364.265
0.320889	354.028
0.322777	365.118
0.351209	354.882
0.35464	366.825
0.369413	355.735
0.375902	368.531
0.389131	356.588
0.403221	370.237
0.407335	357.441
0.427081	359.147
0.43357	371.943
0.448343	360.853
0.468061	361.706
0.482123	374.502
0.486293	363.412
0.504526	365.118
0.507899	375.355
0.5227	365.118
0.527618	376.209
0.539418	366.825
0.553077	367.678
0.556423	377.062
0.566709	367.678
0.575797	367.678
0.580684	377.915
0.590971	368.531
0.592801	377.915
0.601602	369.384
0.612204	369.384
0.617035	377.915
0.618291	370.237
0.630436	371.09
0.639753	377.915
0.642581	371.943
0.656184	371.09
0.672873	371.943
0.676074	377.062
0.683504	372.796
0.697134	372.796
0.706222	372.796
0.71531	372.796
0.72154	377.915
0.722883	372.796
0.730484	373.649
0.745629	373.649
0.754717	373.649
0.762319	374.502
0.771607	380.474
0.772921	374.502
0.780523	375.355
0.791325	381.327
0.792639	375.355
0.798726	376.209
0.819958	377.062
0.820131	382.18
0.830589	377.915
0.838249	380.474
0.845764	378.768
0.853337	378.768
0.868569	381.327
0.870026	379.621
0.883657	379.621
0.891317	382.18
0.897289	379.621
0.910948	380.474
0.923179	383.886
0.924608	381.327
0.938267	382.18
0.944412	384.739
0.951928	383.033
0.961044	383.886
0.971646	383.886
0.971674	384.739
0.979247	384.739
