Adsorption isotherm of Carbon Dioxide on 446-MOF
DOI: 10.1002/chem.201500457
Article source: Figure 2b
Adsorbate Carbon Dioxide: InChIKey CURLTUGMZLYLDI-UHFFFAOYSA-N
Kind: experiment
Temperature: 195 K
Tabular data in the source: 0
pressure (bar)	uptake (cm3(STP)/g)
0	0
0.001493	1.31819
0.002985	3.62539
0.004478	3.95457
0.00597	5.76726
0.007463	5.27227
0.008955	7.08496
0.010448	7.57897
0.01194	8.07299
0.013433	8.567
0.016418	9.06052
0.01791	9.55454
0.019403	11.5321
0.020896	10.8722
0.023881	13.0141
0.028358	12.683
0.032836	14.8243
0.038806	14.6575
0.049254	17.1266
0.055224	16.9598
0.067164	19.4284
0.068657	18.2741
0.092537	21.8926
0.116418	22.544
0.119403	24.0266
0.147761	26.3249
0.152239	25.1696
0.179104	28.2926
0.18209	27.1378
0.207463	30.2613
0.21194	29.106
0.240299	32.5581
0.241791	31.239
0.270149	33.5373
0.273134	35.6792
0.297015	36.99
0.298507	39.2972
0.319403	43.9057
0.322388	42.4212
0.338806	47.196
0.365672	50.9784
0.376119	52.2936
0.398507	54.2642
0.401493	56.7358
0.420896	58.7074
0.431343	60.0226
0.432836	59.198
0.465672	59.8465
0.473134	60.833
0.508955	60.4916
0.51194	61.4796
0.549254	61.3024
0.552239	61.9608
0.586567	61.7846
0.59403	62.4415
0.629851	62.1
0.634328	63.0876
0.667164	62.7471
0.670149	63.4054
0.707463	63.2283
0.713433	64.0505
0.749254	63.709
0.752239	64.2026
0.78806	64.0259
0.789552	64.8496
0.826866	64.6725
0.831343	65.3303
0.867164	64.9888
0.870149	65.6472
0.907463	65.4701
0.910448	65.9636
0.946269	65.9518
0.953731	66.4438
0.980597	66.435
0.98806	66.7622
