Adsorption isotherm of Carbon Dioxide on 446-MOF-Co
DOI: 10.1002/chem.201500457
Article source: Figure 2b
Adsorbate Carbon Dioxide: InChIKey CURLTUGMZLYLDI-UHFFFAOYSA-N
Kind: experiment
Temperature: 195 K
Tabular data in the source: 0
pressure (bar)	uptake (cm3(STP)/g)
0	0
0.001617	4.34695
0.003203	7.60696
0.003267	9.78083
0.00482	11.9539
0.004885	14.1278
0.006438	16.3008
0.009478	18.4731
0.01108	22.2766
0.01412	24.4488
0.014185	26.6227
0.017242	29.3385
0.020315	32.5977
0.020396	35.315
0.021965	38.0315
0.026527	41.2899
0.029583	44.0057
0.034129	46.7206
0.03573	50.5241
0.038722	51.0659
0.040259	52.6955
0.043284	54.3243
0.04634	57.04
0.047829	57.0392
0.050837	58.1245
0.053862	59.7533
0.055398	61.3829
0.056951	63.556
0.059911	63.0109
0.061512	66.8144
0.062952	65.1832
0.066057	69.5293
0.068953	66.8104
0.073579	72.2426
0.075002	70.0679
0.080987	71.1516
0.084011	72.7804
0.087101	76.5831
0.090012	74.4076
0.094541	76.5791
0.094622	79.2964
0.099054	78.207
0.103631	82.0089
0.105038	79.2907
0.135026	86.8831
0.1441	91.7695
0.16799	94.4739
0.181545	99.9013
0.19793	100.436
0.220461	107.489
0.227869	106.398
0.25928	111.816
0.259393	115.62
0.287715	117.235
0.299782	122.663
0.317655	123.197
0.341674	130.249
0.347578	128.615
0.377485	133.49
0.385071	138.378
0.410416	139.994
0.420979	144.88
0.435924	147.046
0.448346	164.43
0.454606	174.753
0.45708	207.904
0.463065	208.987
0.483138	233.433
0.490562	232.886
0.520404	235.587
0.526357	235.584
0.560679	238.826
0.565111	237.736
0.60089	239.891
0.60681	238.801
0.64262	242.042
0.645564	240.953
0.678383	243.653
0.684319	243.106
0.721601	245.803
0.724561	245.258
0.758852	247.414
0.760291	245.782
0.799062	248.479
0.800534	247.934
0.839304	250.631
0.843736	249.541
0.879499	251.152
0.881003	251.695
0.921197	252.217
0.921213	252.76
0.962895	253.281
0.962928	254.368
0.997202	255.98
1.00015	254.891
