Adsorption isotherm of Nitrogen on Tb@446-MOF
DOI: 10.1002/chem.201500457
Article source: Figure 2a
Adsorbate Nitrogen: InChIKey IJGRMHOSHXDMSA-UHFFFAOYSA-N
Kind: experiment
Temperature: 77 K
Tabular data in the source: 0
pressure (bar)	uptake (cm3(STP)/g)
0	0
0.006087	1.68812
0.012318	8.48629
0.015171	2.51695
0.021211	2.50172
0.024445	10.1592
0.030294	3.33054
0.032019	10.9918
0.034824	3.31912
0.039568	10.9728
0.043884	3.29627
0.048628	10.9499
0.059007	4.10987
0.065261	11.7597
0.069577	4.08322
0.081895	12.5695
0.09225	4.87777
0.101548	13.3717
0.1149	4.82066
0.128727	13.3031
0.137596	6.46689
0.16046	14.0748
0.169329	7.2386
0.189197	15.7059
0.201086	8.86199
0.219419	16.4814
0.229799	9.64132
0.252686	18.1009
0.261532	10.413
0.281375	18.0286
0.290244	11.1924
0.311598	18.8041
0.320468	11.9679
0.341821	19.5796
0.35069	12.7434
0.3673	12.7015
0.372044	20.3552
0.377869	12.6749
0.385443	13.5075
0.389997	14.3477
0.397547	14.3287
0.402243	20.279
0.41116	15.1461
0.418709	15.1271
0.426283	15.9597
0.433833	15.9407
0.433999	21.9024
0.438362	15.9292
0.444427	16.7657
0.448956	16.7543
0.456506	16.7352
0.464223	22.6779
0.465566	16.7124
0.471629	17.5488
0.474649	17.5412
0.479179	17.5298
0.486729	17.5107
0.492769	17.4955
0.494446	23.4534
0.495788	17.4879
0.500319	17.4765
0.506382	18.3129
0.509402	18.3053
0.515441	18.2901
0.519972	18.2786
0.524502	18.2672
0.524668	24.2289
0.529055	19.1075
0.539625	19.0808
0.544155	19.0694
0.551728	19.902
0.553381	25.0083
0.563832	20.7232
0.571382	20.7042
0.578955	21.5368
0.585114	25.78
0.586481	20.6661
0.592521	20.6509
0.595565	21.495
0.601604	21.4797
0.607644	21.4645
0.610664	21.4569
0.615313	25.7038
0.616728	22.2933
0.621258	22.2819
0.625787	22.2705
0.631852	23.1069
0.637891	23.0917
0.645535	26.4793
0.646951	23.0688
0.64997	23.0612
0.657545	23.8939
0.662074	23.8824
0.669623	23.8634
0.672667	24.7075
0.675783	28.1065
0.678707	24.6922
0.693807	24.6541
0.701381	25.4868
0.705982	28.0304
0.71346	25.4563
0.7195	25.4411
0.72403	25.4297
0.734623	26.2547
0.736204	28.8059
0.743706	27.0835
0.752767	27.0607
0.76034	27.8933
0.766427	29.5814
0.77091	27.8667
0.77846	27.8476
0.789029	27.821
0.793582	28.6612
0.796651	30.3569
0.804176	29.4862
0.811726	29.4672
0.82081	30.296
0.82534	30.2846
0.828407	31.9803
0.829893	31.1248
0.837443	31.1058
0.841972	31.0944
0.848012	31.0792
0.854052	31.0639
0.85712	32.7597
0.863136	31.8928
0.872195	31.8699
0.876726	31.8585
0.881279	32.6987
0.888852	33.5314
0.893359	32.6683
0.897888	32.6568
0.902419	32.6454
0.909992	33.4781
0.914522	33.4666
0.9191	35.1586
0.920538	32.5997
0.926602	33.4362
0.932665	34.2726
0.943234	34.246
0.947812	35.9379
0.950832	35.9303
0.956872	35.915
0.961402	35.9036
0.968975	36.7363
0.975015	36.721
0.979545	36.7096
0.985609	37.546
0.991649	37.5308
1.00073	38.3596
1.00526	38.3482
1.00979	38.3368
1.01432	38.3254
