Adsorption isotherm of Nitrogen on 446-MOF-Ni
DOI: 10.1002/chem.201500457
Article source: Figure 2a
Adsorbate Nitrogen: InChIKey IJGRMHOSHXDMSA-UHFFFAOYSA-N
Kind: experiment
Temperature: 77 K
Tabular data in the source: 0
pressure (bar)	uptake (cm3(STP)/g)
0	0
0.00206	19.6484
0.002609	39.2994
0.003135	58.096
0.00366	76.8926
0.004162	94.8348
0.006174	112.774
0.006675	130.717
0.008639	146.947
0.012257	168.302
0.015587	179.404
0.017384	189.654
0.021842	187.083
0.028145	196.472
0.02836	204.161
0.036053	209.275
0.037396	203.291
0.045304	216.094
0.048181	210.963
0.053022	222.062
0.060524	220.341
0.063759	228.025
0.075982	233.131
0.080847	245.085
0.089906	245.07
0.09791	261.291
0.099827	275.813
0.107448	278.363
0.113966	295.441
0.114635	319.364
0.120603	316.79
0.139249	335.556
0.139583	347.518
0.156074	343.218
0.168584	358.576
0.178843	347.452
0.200413	362.795
0.207628	350.821
0.229151	364.455
0.239385	352.476
0.262442	366.962
0.269682	355.843
0.291227	370.332
0.299952	358.355
0.321475	371.989
0.330224	360.867
0.353232	373.645
0.361982	362.522
0.381993	376.16
0.387699	364.188
0.405866	365.866
0.413727	376.96
0.427054	367.539
0.44395	377.764
0.448242	369.212
0.466409	370.891
0.474175	378.567
0.489084	371.707
0.504398	379.371
0.505717	372.533
0.526881	373.352
0.533112	380.177
0.548045	374.171
0.564845	380.978
0.567674	374.138
0.587328	374.959
0.593583	382.638
0.608492	375.778
0.625317	383.439
0.628146	376.599
0.64931	377.418
0.65554	384.243
0.668963	378.239
0.687274	385.043
0.690127	379.058
0.709756	379.025
0.715988	385.849
0.72941	379.846
0.747722	386.65
0.750574	380.665
0.773248	381.481
0.776435	387.456
0.795922	382.297
0.808169	388.257
0.815575	383.118
0.83221	383.945
0.838368	388.206
0.851887	385.62
0.868616	389.864
0.871517	385.587
0.89419	386.403
0.898863	391.522
0.912358	388.082
0.930597	392.323
0.932012	388.903
0.951689	390.579
0.960821	393.126
0.983518	394.797
