Adsorption isotherm of Methane on 446-MOF-Co
DOI: 10.1002/chem.201500457
Article source: Figure 2b
Adsorbate Methane: InChIKey VNWKTOKETHGBQD-UHFFFAOYSA-N
Kind: experiment
Temperature: 195 K
Tabular data in the source: 0
pressure (bar)	uptake (cm3(STP)/g)
0	0
0.005912	0.499015
0.007336	1.16544
0.01035	0.831608
0.013214	1.9978
0.020583	2.8299
0.020699	1.66322
0.02209	2.66298
0.025005	3.32917
0.026627	1.99556
0.029426	3.82843
0.031049	2.49483
0.033864	4.16102
0.036977	2.82717
0.038302	4.49362
0.041415	3.15976
0.04423	4.82596
0.044346	3.65928
0.050274	3.99162
0.051615	5.4914
0.054712	4.32421
0.059001	6.15683
0.059166	4.49014
0.063588	4.9894
0.069499	5.48842
0.072447	5.82126
0.07975	7.32004
0.079849	6.32003
0.088774	6.4852
0.096193	6.8173
0.102121	7.14965
0.115286	9.64745
0.156817	11.6405
0.168839	10.6385
0.195367	13.6341
0.210386	12.4649
0.235407	15.6274
0.247462	14.2921
0.273957	17.621
0.2905	16.1183
0.312507	19.6146
0.330557	17.9449
0.354088	21.1077
0.366176	19.439
0.394161	22.7676
0.406266	20.9323
0.434251	24.261
0.44783	22.592
0.474341	25.7543
0.486413	24.2523
0.514415	27.4143
0.527994	25.7453
0.554522	28.7409
0.566626	26.9056
0.593138	30.0678
0.606716	28.3989
0.633228	31.5611
0.645316	29.8924
0.671877	32.5547
0.68693	31.0522
0.710494	33.8816
0.724056	32.3793
0.753564	35.3744
0.767126	33.8721
0.789233	36.3685
0.805743	35.199
0.830847	37.5282
0.845833	36.6924
0.87097	38.6882
0.882959	38.0195
0.911093	39.8482
0.927536	39.3454
0.952723	40.8412
0.966169	40.5056
0.985428	41.6691
