Adsorption isotherm of Nitrogen on 446-MOF-Co
DOI: 10.1002/chem.201500457
Article source: Figure 2a
Adsorbate Nitrogen: InChIKey IJGRMHOSHXDMSA-UHFFFAOYSA-N
Kind: experiment
Temperature: 77 K
Tabular data in the source: 0
pressure (bar)	uptake (cm3(STP)/g)
0	0
0.000306	13.6704
0.000517	23.0687
0.000785	35.0303
0.001072	47.8463
0.001321	58.9535
0.001608	71.7694
0.003388	83.7285
0.003637	94.8356
0.003848	104.234
0.004154	117.904
0.004326	125.594
0.004556	135.847
0.009514	154.636
0.011466	174.284
0.014299	165.735
0.014721	184.532
0.02255	196.481
0.027221	202.454
0.028369	186.218
0.031872	207.573
0.036103	193.895
0.036524	212.692
0.042688	217.808
0.046937	204.984
0.054996	227.186
0.069985	221.179
0.07657	245.092
0.08237	233.975
0.093339	251.045
0.093702	267.279
0.103082	280.934
0.106087	280.074
0.117554	319.359
0.120407	311.664
0.14196	328.716
0.154422	344.929
0.186084	340.604
0.199981	353.397
0.220981	345.672
0.251474	356.728
0.272513	350.711
0.301475	360.916
0.322493	354.045
0.349944	364.252
0.374006	358.23
0.393703	359.906
0.413401	361.581
0.433079	362.403
0.45427	363.221
0.454481	372.62
0.473949	364.042
0.495159	365.716
0.516349	366.534
0.534535	368.212
0.555707	368.177
0.575385	368.998
0.596575	369.817
0.60584	378.345
0.616254	370.638
0.637425	370.602
0.655592	371.426
0.676782	372.245
0.696442	372.212
0.717652	373.885
0.73733	374.706
0.758521	375.525
0.758693	383.214
0.776668	375.494
0.799371	376.31
0.819069	377.986
0.838728	377.953
0.858425	379.628
0.881128	380.444
0.897782	381.271
0.907009	388.091
