Adsorption isotherm of Methane on 446-MOF
DOI: 10.1002/chem.201500457
Article source: Figure 2b
Adsorbate Methane: InChIKey VNWKTOKETHGBQD-UHFFFAOYSA-N
Kind: experiment
Temperature: 195 K
Tabular data in the source: 0
pressure (bar)	uptake (cm3(STP)/g)
0	0
0.004487	0.16158
0.0075	0.486685
0.012003	0.811303
0.017997	1.13544
0.021107	2.43877
0.027003	1.78467
0.027149	3.25202
0.031506	2.10929
0.034681	4.06478
0.037516	2.59646
0.040691	4.55195
0.045032	3.24619
0.049535	3.5708
0.057181	5.52483
0.077964	4.70284
0.082645	6.82088
0.09745	5.83779
0.114086	8.27802
0.134885	7.61906
0.15455	10.5474
0.179787	9.56094
0.194965	12.3277
0.220187	11.1782
0.235365	13.945
0.260553	12.4694
0.274273	15.5627
0.302443	14.0862
0.31464	16.8539
0.339813	15.2153
0.353533	18.3086
0.380179	16.5065
0.3939	19.5998
0.420546	17.7976
0.435773	21.0536
0.459423	19.0893
0.474649	22.3452
0.50128	20.38
0.51649	23.4729
0.54163	21.5082
0.55535	24.6015
0.581981	22.6363
0.594211	25.7301
0.620841	23.7649
0.636051	26.8578
0.662682	24.8926
0.674879	27.6604
0.701558	26.1843
0.716736	28.9511
0.743399	27.3119
0.752584	29.7546
0.783766	28.6031
0.794408	30.7192
0.824084	29.4052
0.836233	31.6838
0.86147	30.6973
0.873587	32.6499
0.90033	31.826
0.912415	33.4525
0.942171	32.9536
0.954223	34.2541
0.982522	34.0818
0.993067	35.2197
