Adsorption isotherm of Water on CAB-70
DOI: 10.1016/j.micromeso.2007.04.018
Article source: Figure 3
Adsorbate Water: InChIKey XLYOFNOQVPJJNP-UHFFFAOYSA-N
Temperature: 293 K
Tabular data in the source: 0
pressure (bar)	uptake (mmol/g)
0.000109	0.135333
0.000109	0.586037
0.000183	0.833925
0.000769	1.34097
0.001318	1.44237
0.006664	1.73533
0.012963	1.80294
0.019555	1.89308
