Adsorption isotherm of Ethanol on CAB-70
DOI: 10.1016/j.micromeso.2007.04.018
Article source: Figure 2
Adsorbate Ethanol: InChIKey LFQSCWFLJHTTHZ-UHFFFAOYSA-N
Temperature: 313 K
Tabular data in the source: 0
pressure (bar)	uptake (mmol/g)
0.000464	0.690868
0.000836	0.758474
0.001765	0.80284
0.006785	0.904248
0.013199	0.96129
0.026399	1.0458
0.052706	1.10073
