Adsorption isotherm of Ethanol on CAB-70
DOI: 10.1016/j.micromeso.2007.04.018
Article source: Figure 2
Adsorbate Ethanol: InChIKey LFQSCWFLJHTTHZ-UHFFFAOYSA-N
Temperature: 293 K
Tabular data in the source: 0
pressure (bar)	uptake (mmol/g)
0.000185	0.500727
0.000278	0.198614
0.000278	0.407769
0.000278	0.635938
0.000371	0.692981
0.000557	0.785938
0.001393	0.832417
0.002788	0.946502
0.006878	1.00143
0.014686	1.0796
0.026492	1.12608
0.053357	1.27185
