Adsorption isotherm of Ethanol on CAB-70
DOI: 10.1016/j.micromeso.2007.04.018
Article source: Figure 4
Adsorbate Ethanol: InChIKey LFQSCWFLJHTTHZ-UHFFFAOYSA-N
Temperature: 293 K
Tabular data in the source: 0
pressure (bar)	uptake (mmol/g)
0.000185	0.084553
0.000278	0.245116
0.000371	0.321172
0.000464	0.426806
0.001207	0.562018
0.006599	0.621172
0.013385	0.654975
0.032162	0.693003
0.052799	0.828215
