Adsorption isotherm of Ethanol on CAB-70
DOI: 10.1016/j.micromeso.2007.04.018
Article source: Figure 2
Adsorbate Ethanol: InChIKey LFQSCWFLJHTTHZ-UHFFFAOYSA-N
Temperature: 353 K
Tabular data in the source: 0
pressure (bar)	uptake (mmol/g)
9.2e-05	0.4796
0.001393	0.587347
0.006692	0.65284
0.013199	0.699319
0.026306	0.758474
0.056982	0.823967
