Adsorption isotherm of Water on CAB-70
DOI: 10.1016/j.micromeso.2007.04.018
Article source: Figure 3
Adsorbate Water: InChIKey XLYOFNOQVPJJNP-UHFFFAOYSA-N
Temperature: 353 K
Tabular data in the source: 0
pressure (bar)	uptake (mmol/g)
0.000219	1.07054
0.000293	1.60012
0.000695	2.40012
0.001391	3.13252
0.006408	4.33815
0.012926	4.83392
0.018419	5.00294
