Adsorption isotherm of Water on CAB-70
DOI: 10.1016/j.micromeso.2007.04.018
Article source: Figure 1
Adsorbate Water: InChIKey XLYOFNOQVPJJNP-UHFFFAOYSA-N
Temperature: 333 K
Tabular data in the source: 0
pressure (bar)	uptake (mmol/g)
0.000208	0.442997
0.000208	0.949268
0.000283	1.20669
0.000729	1.88458
0.00151	2.18491
0.00653	2.75125
0.012665	3.00867
0.019507	3.14597
