Adsorption isotherm of Ethanol on CAB-70
DOI: 10.1016/j.micromeso.2007.04.018
Article source: Figure 4
Adsorbate Ethanol: InChIKey LFQSCWFLJHTTHZ-UHFFFAOYSA-N
Temperature: 353 K
Tabular data in the source: 0
pressure (bar)	uptake (mmol/g)
0.000185	0.925398
0.00065	1.08174
0.0013	1.15357
0.006413	1.24653
0.013106	1.31836
0.026306	1.40286
0.052055	1.45779
