Adsorption isotherm of Water on CAB-70
DOI: 10.1016/j.micromeso.2007.04.018
Article source: Figure 1
Adsorbate Water: InChIKey XLYOFNOQVPJJNP-UHFFFAOYSA-N
Temperature: 353 K
Tabular data in the source: 0
pressure (bar)	uptake (mmol/g)
0.000134	0.631776
0.000208	0.16841
0.000283	1.0265
0.000692	1.60141
0.001324	1.91891
0.006344	2.57105
0.012776	2.77699
0.019061	2.91428
0.025568	3.01726
