Adsorption isotherm of Water on CAB-70
DOI: 10.1016/j.micromeso.2007.04.018
Article source: Figure 1
Adsorbate Water: InChIKey XLYOFNOQVPJJNP-UHFFFAOYSA-N
Temperature: 293 K
Tabular data in the source: 0
pressure (bar)	uptake (mmol/g)
0.000171	0.194152
0.000171	0.726165
0.000171	1.55851
0.000246	2.40801
0.000729	3.03442
0.001398	3.2232
0.006418	3.67798
0.012888	4.01263
