Adsorption isotherm of Water on CAB-70
DOI: 10.1016/j.micromeso.2007.04.018
Article source: Figure 3
Adsorbate Water: InChIKey XLYOFNOQVPJJNP-UHFFFAOYSA-N
Temperature: 353 K
Tabular data in the source: 0
pressure (bar)	uptake (mmol/g)
0.000146	0.202939
0.000256	0.484629
0.000622	0.800122
0.001355	0.991671
0.006335	1.41984
0.012853	1.53252
0.019078	1.58885
