Adsorption isotherm of Ethanol on CAB-70
DOI: 10.1016/j.micromeso.2007.04.018
Article source: Figure 4
Adsorbate Ethanol: InChIKey LFQSCWFLJHTTHZ-UHFFFAOYSA-N
Temperature: 293 K
Tabular data in the source: 0
pressure (bar)	uptake (mmol/g)
1e-06	0.388778
0.000185	1.08174
0.000278	1.37751
0.000836	1.55498
0.001486	1.78314
0.006971	2.20568
0.013292	2.28174
0.026492	2.34934
0.051405	2.56483
