Adsorption isotherm of Water on CAB-70
DOI: 10.1016/j.micromeso.2007.04.018
Article source: Figure 3
Adsorbate Water: InChIKey XLYOFNOQVPJJNP-UHFFFAOYSA-N
Temperature: 293 K
Tabular data in the source: 0
pressure (bar)	uptake (mmol/g)
0.000146	2.79449
0.000219	1.07054
0.000219	4.09026
0.000659	5.16069
0.001318	5.53252
0.006335	6.27618
0.012743	6.71561
