Adsorption isotherm of Water on CAB-70
DOI: 10.1016/j.micromeso.2007.04.018
Article source: Figure 1
Adsorbate Water: InChIKey XLYOFNOQVPJJNP-UHFFFAOYSA-N
Temperature: 313 K
Tabular data in the source: 0
pressure (bar)	uptake (mmol/g)
0.000171	1.04366
0.000171	1.46412
0.000246	2.00471
0.000729	2.51098
0.001473	2.80273
0.006418	3.28326
0.012776	3.48062
0.016086	3.57501
0.024824	3.73805
