Adsorption isotherm of Ethanol on CAB-70
DOI: 10.1016/j.micromeso.2007.04.018
Article source: Figure 2
Adsorbate Ethanol: InChIKey LFQSCWFLJHTTHZ-UHFFFAOYSA-N
Temperature: 333 K
Tabular data in the source: 0
pressure (bar)	uptake (mmol/g)
0.000278	0.21129
0.000278	0.428896
0.000743	0.559882
0.001393	0.627488
0.002695	0.676079
0.006599	0.728896
0.013385	0.777488
0.026399	0.81129
0.052334	0.842981
