Adsorption isotherm of Nitrogen on Pt-MOF(C4+180)
DOI: 10.1016/j.jpowsour.2013.03.164
Adsorbate Nitrogen: InChIKey IJGRMHOSHXDMSA-UHFFFAOYSA-N
Temperature: 77 K
Tabular data in the source: 0
pressure (bar)	uptake (cm3(STP)/g)
0.00396539	0.00408163
0.0218097	218.657
0.0396539	220.834
0.0574981	223.012
0.077325	224.088
0.0951693	225.167
0.114996	226.244
0.134824	228.419
0.152668	229.498
0.172494	230.574
0.190338	231.653
0.222061	234.914
0.245854	235.986
0.271629	238.154
0.295422	240.325
0.315249	240.303
0.344989	243.566
0.368781	242.44
0.392574	245.71
0.418348	247.878
0.43421	248.959
0.461967	251.126
0.487743	253.294
0.513517	256.562
0.53731	257.634
0.559119	259.807
0.582912	261.978
0.592825	264.165
0.602739	265.252
0.620584	267.43
0.636445	267.412
0.650324	269.594
0.66222	272.877
0.676098	276.158
0.687995	277.244
0.709804	281.615
0.729631	283.79
0.747476	287.067
0.759372	291.449
0.771268	293.633
0.787129	298.011
0.802991	301.29
0.81687	304.571
0.830749	308.95
0.846611	314.427
0.862472	322.101
0.870402	324.29
0.896178	330.854
0.91997	339.619
0.943763	349.482
0.94971	351.673
0.961607	357.154
