Adsorption isotherm of Nitrogen on Pt-MOF
DOI: 10.1016/j.jpowsour.2013.03.164
Adsorbate Nitrogen: InChIKey IJGRMHOSHXDMSA-UHFFFAOYSA-N
Temperature: 77 K
Tabular data in the source: 0
pressure (bar)	uptake (cm3(STP)/g)
0.000295075	75.0809
0.00374949	154.045
0.00534696	160.518
0.016392	170.874
0.0242624	173.463
0.035287	178.641
0.0478683	179.935
0.0573057	181.23
0.0683151	182.524
0.0808913	182.524
0.0903286	183.819
0.0981993	186.408
0.110776	186.408
0.120213	187.702
0.12965	188.997
0.139082	188.997
0.150081	187.702
0.159519	188.997
0.168956	190.291
0.17996	190.291
0.189393	190.291
0.197253	190.291
0.22241	191.586
0.245991	191.586
0.271148	192.88
0.294729	192.88
0.319887	194.175
0.345039	194.175
0.36862	194.175
0.390634	195.469
0.417358	195.469
0.440944	196.764
0.466096	196.764
0.489682	198.058
0.514835	198.058
0.539993	199.353
0.562001	199.353
0.58716	200.647
0.595019	200.647
0.607595	200.647
0.617028	200.647
0.62646	200.647
0.634325	201.942
0.646901	201.942
0.654762	201.942
0.665766	201.942
0.673632	203.236
0.684636	203.236
0.69564	203.236
0.701928	203.236
0.712928	201.942
0.722359	201.942
0.733364	201.942
0.742801	203.236
0.752238	204.531
0.761671	204.531
0.771108	205.825
0.780541	205.825
0.789967	204.531
0.799405	205.825
0.808842	207.12
0.818274	207.12
0.829284	208.414
0.838721	209.709
0.846581	209.709
0.857585	209.709
0.868589	209.709
0.876455	211.003
0.898468	212.298
0.922059	214.887
0.942511	218.77
0.94881	221.359
0.955113	225.243
0.961416	229.126
