Adsorption isotherm of Nitrogen on Pt-MOF(C1)
DOI: 10.1016/j.jpowsour.2013.03.164
Adsorbate Nitrogen: InChIKey IJGRMHOSHXDMSA-UHFFFAOYSA-N
Temperature: 77 K
Tabular data in the source: 0
pressure (bar)	uptake (cm3(STP)/g)
0	5.49451
0.00396539	27.468
0.019827	31.8457
0.0396539	34.0211
0.0574981	36.1987
0.077325	38.3741
0.097152	39.4505
0.116979	40.527
0.134824	42.7046
0.15465	43.7811
0.174477	44.8576
0.192321	45.9363
0.222061	48.1005
0.243871	49.1747
0.269646	50.2444
0.295422	50.2153
0.317231	53.4873
0.344989	55.6537
0.364815	58.928
0.386625	58.9033
0.410418	59.9753
0.416365	59.9686
0.438175	61.0428
0.465933	64.3081
0.489726	65.3801
0.513517	66.4521
0.53731	69.7219
0.559119	71.895
0.580929	75.1671
0.58886	75.1581
0.600756	76.2436
0.612652	78.4279
0.624548	79.5133
0.638428	80.5965
0.652307	81.6797
0.664202	81.6663
0.68403	84.9406
0.697908	87.1227
0.717736	91.4959
0.733597	93.6757
0.751441	96.9522
0.761354	96.941
0.777216	102.418
0.787129	105.703
0.801009	108.984
0.81687	112.263
0.836696	115.537
0.850575	118.818
0.862472	124.299
0.872385	128.684
0.896178	137.448
0.91997	147.311
0.945745	151.678
0.947728	156.071
0.957641	162.653
