Adsorption isotherm of Nitrogen on MOF-253
DOI: 10.1016/j.jpowsour.2013.03.164
Adsorbate Nitrogen: InChIKey IJGRMHOSHXDMSA-UHFFFAOYSA-N
Temperature: 77 K
Tabular data in the source: 0
pressure (bar)	uptake (cm3(STP)/g)
0.00035555	90.3221
0.00570404	249.025
0.00736497	270.958
0.0200225	286.425
0.0263463	292.868
0.0373785	295.434
0.0468311	296.712
0.0594378	299.276
0.0688904	300.554
0.0799124	300.539
0.0893751	304.397
0.098823	304.385
0.1067	305.665
0.117723	305.65
0.13032	305.633
0.139772	306.911
0.147645	306.901
0.158672	308.176
0.16655	309.456
0.179146	309.439
0.188593	309.427
0.198046	310.705
0.224819	311.959
0.250013	311.926
0.272062	313.187
0.294106	313.158
0.320878	314.413
0.346077	315.669
0.368122	315.64
0.39332	316.897
0.416943	318.156
0.442142	319.413
0.467335	319.379
0.490954	319.348
0.516147	319.314
0.539776	321.864
0.56181	319.254
0.588588	321.799
0.599609	321.784
0.610631	321.77
0.626378	321.749
0.6374	321.734
0.650001	323.008
0.659448	322.995
0.670471	322.98
0.684642	322.962
0.697239	322.945
0.70826	322.93
0.725587	324.198
0.739762	325.469
0.760232	325.442
0.777557	326.709
0.790154	326.692
0.810629	327.956
0.82481	330.517
0.838981	330.499
0.851588	333.063
0.861041	334.34
0.870488	334.328
0.879936	334.315
0.898845	338.161
0.92091	343.293
0.944564	352.294
