Adsorption isotherm of Nitrogen on Pt-MOF(C3+120)
DOI: 10.1016/j.jpowsour.2013.03.164
Adsorbate Nitrogen: InChIKey IJGRMHOSHXDMSA-UHFFFAOYSA-N
Temperature: 77 K
Tabular data in the source: 0
pressure (bar)	uptake (cm3(STP)/g)
0.0019827	125.272
0.00396539	147.248
0.0158615	152.729
0.0297404	156.01
0.045602	155.992
0.0594808	157.076
0.0753423	159.255
0.0892212	159.24
0.105083	160.321
0.118962	161.404
0.134824	162.485
0.150685	164.665
0.166547	163.548
0.182408	165.728
0.19827	166.809
0.222061	168.98
0.245854	170.052
0.271629	171.121
0.293439	173.294
0.321196	174.362
0.344989	176.533
0.368781	177.605
0.392574	177.578
0.416365	179.749
0.436193	184.122
0.46395	185.19
0.487743	187.36
0.511535	188.432
0.533345	190.606
0.559119	192.774
0.582912	197.143
0.592825	196.033
0.602739	198.219
0.612652	198.208
0.622566	199.296
0.632479	202.581
0.642392	203.669
0.652307	203.658
0.66222	208.042
0.674116	210.227
0.689977	212.406
0.707821	214.584
0.719718	217.867
0.737562	221.144
0.747476	224.429
0.763337	228.807
0.775233	232.09
0.787129	238.67
0.801009	241.951
0.820835	248.522
0.832732	252.904
0.842645	258.388
0.856524	263.866
0.862472	267.156
0.870402	270.444
0.896178	279.206
0.921953	287.968
0.945745	296.732
0.951693	302.22
0.959624	307.706
