Adsorption isotherm of Nitrogen on Pt-MOF(C2+60)
DOI: 10.1016/j.jpowsour.2013.03.164
Adsorbate Nitrogen: InChIKey IJGRMHOSHXDMSA-UHFFFAOYSA-N
Temperature: 77 K
Tabular data in the source: 0
pressure (bar)	uptake (cm3(STP)/g)
0.0019827	64.8329
0.00396539	83.512
0.0138788	88.9953
0.025775	91.1796
0.0416365	92.2606
0.0495673	93.3505
0.0594808	94.4382
0.0733597	95.5214
0.0832732	95.5102
0.0931866	97.6968
0.1031	97.6856
0.109048	97.6789
0.116979	98.7688
0.126892	98.7576
0.136806	98.7464
0.142754	98.7396
0.152668	99.8273
0.160598	103.115
0.172494	103.102
0.184391	103.088
0.196287	104.174
0.222061	106.342
0.245854	108.513
0.271629	109.583
0.295422	110.655
0.319213	112.826
0.343006	113.898
0.364815	116.071
0.390591	118.24
0.414383	119.312
0.438175	121.482
0.46395	123.651
0.489726	126.919
0.513517	127.991
0.535327	130.164
0.559119	134.532
0.580929	136.706
0.594808	137.789
0.602739	138.879
0.618601	142.157
0.632479	143.241
0.642392	144.328
0.650324	145.418
0.660237	146.506
0.672134	150.888
0.68403	151.974
0.697908	155.255
0.709804	157.439
0.723683	159.621
0.739544	163.999
0.751441	165.084
0.757389	168.374
0.771268	170.556
0.787129	172.736
0.797043	176.022
0.814888	179.298
0.826783	180.383
0.844628	183.66
0.856524	184.745
0.870402	186.928
0.880316	189.114
0.898161	192.391
0.921953	200.056
0.945745	206.623
0.955658	208.809
0.961607	212.099
