Adsorption isotherm of Nitrogen on UiO-66-(OH)2
DOI: 10.1021/acs.inorgchem.5b00435
Article source: Figure 3a- UiO 66 OH 2
Adsorbate Nitrogen: InChIKey IJGRMHOSHXDMSA-UHFFFAOYSA-N
Kind: experiment
Temperature: 77 K
Tabular data in the source: 0
pressure (bar)	uptake (cm3(STP)/g)
0.005249	142.54
0.014155	146.11
0.160185	191.81
0.17055	194.62
0.204464	200.31
0.212914	202.44
0.224313	203.46
0.232338	204.71
0.242927	206.47
0.253373	207.12
0.265502	207.85
0.284186	211.15
0.301178	216.72
0.314128	218.26
0.333319	220.53
0.352439	224.05
0.36326	225.59
0.37318	227.27
0.381205	229.25
0.387386	230.94
0.398704	231.59
0.407093	233.72
0.417165	236.43
0.424005	236.65
0.434228	239.29
0.444158	240.39
0.454757	241.78
0.466743	243.69
0.476815	244.71
0.48638	247.28
0.497344	250.14
0.505358	250.65
0.515653	253.58
0.524843	255.41
0.537347	256.8
0.547429	258.05
0.558017	260.69
0.565667	262.89
0.575374	265.6
0.584422	265.45
0.595386	268.9
0.606126	270.58
0.61635	273.37
0.627161	275.94
0.638044	276.59
0.650983	274.68
0.660254	277.32
0.669819	282.38
0.677692	284.88
0.687693	287.59
0.698058	289.94
0.708363	292.87
0.716966	295.66
0.728881	298.66
0.738072	301.74
0.750433	304.97
0.760434	308.49
0.769928	311.79
0.779706	315.97
0.789859	318.39
0.799647	321.84
0.80987	326.68
0.820753	331.6
0.831199	336.95
0.841423	343.12
0.850471	347.89
0.861364	355.3
0.87181	361.91
0.882551	369.32
0.890272	375.04
0.892927	386.72
0.896605	390.9
0.910284	401.62
0.918015	410.57
0.919048	423.35
0.921693	435.61
0.925229	440.16
0.928907	452.79
0.932595	464.17
0.93679	469.23
0.93981	480.32
0.942535	493.98
0.946142	498.75
0.948128	510.28
0.950195	521.22
0.953944	535.9
0.957997	550.29
0.9605	562.99
0.963895	574.23
0.966539	578.34
0.967867	591.77
0.970886	604.55
0.979792	615.49
0.979874	615.7
0.980684	644.05
0.982599	656.9
0.986652	661.23
0.987169	674.3
0.989824	687.3
0.008805	139.88
0.020133	151.11
0.029627	156.91
0.038676	163.07
0.05662	168.64
0.067209	172.16
0.078831	176.27
0.089277	178.69
0.09788	180.6
0.109654	184.04
0.119878	185.44
0.129737	187.93
0.139808	190.28
0.151501	193.06
0.161654	195.04
0.171949	196.5
0.180997	198.92
0.190856	199.88
0.201515	201.85
0.211891	202.73
0.222702	205.67
0.232338	206.91
0.241974	208.82
0.250941	210.5
0.261246	211.97
0.271764	213.58
0.281694	215.26
0.292505	217.09
0.302648	219.29
0.313317	220.69
0.324351	222
0.333765	223.03
0.34413	225.52
0.351709	225.52
0.362521	226.91
0.373038	229.92
0.383262	231.23
0.39385	233.51
0.404074	236.15
0.414004	237.54
0.423863	238.12
0.433205	240.91
0.444381	242.3
0.455192	244.94
0.465345	246.77
0.475934	248.82
0.486451	251.17
0.495874	252.41
0.505581	253.73
0.516018	255.86
0.526981	258.13
0.53684	260.48
0.546699	262.75
0.557581	265.17
0.566549	267.81
0.576114	269.49
0.587148	272.87
0.59803	274.77
0.608548	277.41
0.619369	280.93
0.627749	284.75
0.637679	287.39
0.648277	291.94
0.658714	295.31
0.668502	299.64
0.679384	304.19
0.688584	309.84
0.699913	314.53
0.708961	321.06
0.720806	326.64
0.728892	331.85
0.740807	338.82
0.748974	344.77
0.760454	351.89
0.770607	358.34
0.781266	364.65
0.791713	371.55
0.805544	381.31
0.813934	396.22
0.826153	402.97
0.832628	410.97
0.838434	421.69
0.843885	430.28
0.848526	442.32
0.853896	449.95
0.857797	461.77
0.864718	478.14
0.867585	491.8
0.873259	508.69
0.876573	520.07
0.882531	529.17
0.884304	542.68
0.8871	554.21
0.895196	570.8
0.898732	584.16
0.901458	603.69
0.904467	590.55
0.90544	616.25
0.91228	631.81
0.915674	642.97
0.920376	658.97
0.920457	659.2
0.929728	669.99
0.940174	681
0.951361	689.15
0.962395	697.59
0.973135	701.84
0.98799	704.85
1.00027	698.97
