Adsorption isotherm of Carbon Dioxide on UiO-66-(COOH)2
DOI: 10.1021/acs.inorgchem.5b00435
Article source: Figure 4a- UiO 66 COOH 2
Adsorbate Carbon Dioxide: InChIKey CURLTUGMZLYLDI-UHFFFAOYSA-N
Kind: experiment
Temperature: 273 K
Tabular data in the source: 0
pressure (bar)	uptake (mmol/g)
0.01456	0.21109
0.02669	0.35433
0.03976	0.47653
0.05246	0.57925
0.06653	0.67474
0.07946	0.76144
0.09339	0.8428
0.10667	0.91694
0.11931	0.98447
0.13273	1.04824
0.14631	1.10918
0.15966	1.16541
0.1728	1.21913
0.18688	1.26656
0.19945	1.31305
0.21331	1.3608
0.22638	1.40226
0.23974	1.43964
0.25417	1.48142
0.26724	1.52037
0.28017	1.55273
0.2931	1.58508
0.30645	1.6165
0.31981	1.65136
0.33439	1.67744
0.3466	1.70696
0.36003	1.73367
0.37339	1.76288
0.38618	1.78487
0.39961	1.80623
0.41354	1.82947
0.4269	1.85555
0.44033	1.88507
0.45319	1.90329
0.46683	1.9278
0.47998	1.94664
0.49363	1.96549
0.50698	1.9856
0.52034	2.00696
0.53435	2.02706
0.54627	2.04591
0.56057	2.05847
0.57321	2.07638
0.58657	2.09208
0.60021	2.11062
0.61415	2.12695
0.62737	2.14391
0.64008	2.15774
0.65351	2.17219
0.66687	2.18884
0.68016	2.19763
0.69345	2.21491
0.7063	2.22967
0.72096	2.24569
0.73338	2.2592
0.74689	2.27082
0.75859	2.2859
0.7731	2.29658
0.78761	2.30946
0.79997	2.31888
0.81304	2.3349
0.82705	2.34621
0.83947	2.35689
0.85312	2.36789
0.86734	2.37731
0.88034	2.38799
0.89299	2.3971
0.90671	2.40841
0.91985	2.41909
0.93379	2.42694
0.94794	2.44045
0.96036	2.44862
0.973	2.45836
0.98651	2.46747
0.99965	2.47375
1.01388	2.4816
1.03456	2.49574
1.05044	2.50485
1.06631	2.50642
0.02727	0.30973
0.03854	0.41339
0.05261	0.51925
0.06589	0.60846
0.07939	0.69705
0.09332	0.77432
0.10689	0.84532
0.11953	0.91191
0.13497	0.97945
0.14674	1.03536
0.16103	1.08688
0.1736	1.14562
0.18832	1.19148
0.20175	1.23138
0.21468	1.28384
0.22818	1.3231
0.23981	1.35923
0.25324	1.40101
0.26761	1.44184
0.28104	1.47545
0.29353	1.50592
0.30775	1.53765
0.3209	1.57252
0.3349	1.60644
0.34704	1.63314
0.3604	1.6611
0.37412	1.69283
0.38719	1.7145
0.40076	1.73869
0.41549	1.76759
0.42784	1.79178
0.43976	1.81502
0.45492	1.83764
0.46698	1.85963
0.47934	1.87973
0.49349	1.90675
0.5062	1.92088
0.51999	1.94633
0.53256	1.95952
0.54707	1.97868
0.55964	2.00193
0.57343	2.01764
0.58463	2.0302
0.59914	2.0525
0.61178	2.06633
0.6273	2.0858
0.63915	2.10716
0.65301	2.12255
0.66659	2.13795
0.67937	2.15522
0.69216	2.16119
0.70437	2.17721
0.71924	2.19418
0.7331	2.21428
0.74639	2.22842
0.75903	2.23627
0.77225	2.25355
0.78489	2.27019
0.79674	2.27334
0.81067	2.2881
0.82518	2.30443
0.84019	2.32391
0.85319	2.34087
0.86699	2.34967
0.88106	2.36098
0.89399	2.3726
0.90678	2.38014
0.92028	2.39239
0.93106	2.40024
0.94621	2.41846
0.95972	2.42537
0.97272	2.43448
0.9873	2.45302
1.00095	2.45898
1.01452	2.47846
1.02731	2.4838
1.03851	2.49134
1.05317	2.50108
