Adsorption isotherm of Carbon Dioxide on UiO-66-(COOH)4
DOI: 10.1021/acs.inorgchem.5b00435
Article source: Figure 4a- UiO 66 COOH 4
Adsorbate Carbon Dioxide: InChIKey CURLTUGMZLYLDI-UHFFFAOYSA-N
Kind: experiment
Temperature: 273 K
Tabular data in the source: 0
pressure (bar)	uptake (mmol/g)
0.0168	0.09047
0.02836	0.12188
0.04151	0.15581
0.05285	0.18157
0.06743	0.20858
0.07979	0.23434
0.09257	0.25539
0.10644	0.27266
0.11951	0.28523
0.13251	0.30722
0.14572	0.32261
0.15894	0.33612
0.17115	0.35308
0.18573	0.36313
0.19909	0.38104
0.21296	0.39109
0.22596	0.40083
0.23939	0.41245
0.25411	0.42501
0.26661	0.43412
0.2799	0.447
0.29225	0.45863
0.30605	0.4715
0.31955	0.47779
0.33327	0.48407
0.34692	0.49569
0.35963	0.50449
0.37321	0.51799
0.38678	0.52334
0.39978	0.53182
0.41293	0.5403
0.42672	0.54909
0.43979	0.556
0.45258	0.56543
0.46587	0.57642
0.48002	0.58333
0.49338	0.58867
0.5066	0.59558
0.52032	0.60124
0.53375	0.61066
0.54689	0.61632
0.56004	0.62605
0.57318	0.63014
0.58719	0.64145
0.59926	0.64679
0.61334	0.65244
0.62555	0.65778
0.63841	0.66187
0.65349	0.66783
0.66714	0.6782
0.67949	0.68134
0.69364	0.68637
0.70636	0.69485
0.72008	0.69987
0.73315	0.70773
0.74701	0.70773
0.75987	0.72029
0.77359	0.72595
0.78623	0.72658
0.79988	0.73914
0.81432	0.74542
0.82754	0.74825
0.84075	0.74856
0.85411	0.7605
0.86633	0.76176
0.87969	0.76584
0.89348	0.77087
0.90727	0.78123
0.92013	0.79474
0.93291	0.796
0.94635	0.80322
0.96122	0.80416
0.97458	0.80919
0.98657	0.81453
0.99965	0.81579
1.01358	0.81516
1.0273	0.8183
1.04196	0.82176
0.01342	0.1489
0.02664	0.18628
0.04014	0.22429
0.05285	0.25664
0.06642	0.27612
0.08	0.30093
0.09314	0.32449
0.10693	0.34051
0.11979	0.36313
0.13372	0.37978
0.14723	0.39674
0.16008	0.41308
0.17431	0.4203
0.18666	0.44355
0.20016	0.44543
0.21295	0.46554
0.22681	0.47936
0.24039	0.49035
0.2531	0.50135
0.26538	0.50731
0.27839	0.51925
0.29254	0.5315
0.30647	0.54061
0.3189	0.55066
0.33219	0.55852
0.34634	0.567
0.35898	0.57736
0.37191	0.58522
0.38706	0.5959
0.40042	0.60407
0.41436	0.61129
0.42707	0.6182
0.44043	0.62731
0.45265	0.63139
0.46601	0.63893
0.47987	0.64742
0.4938	0.65433
0.5053	0.65778
0.51938	0.66344
0.53159	0.67286
0.54409	0.67631
0.55896	0.68605
0.5726	0.69045
0.58611	0.6983
0.59925	0.7027
0.61269	0.70553
0.62669	0.71338
0.6402	0.71841
0.65284	0.725
0.66692	0.72783
0.67935	0.73097
0.69335	0.73788
0.70628	0.74322
0.71943	0.74637
0.73272	0.75673
0.7455	0.75705
0.75757	0.76144
0.77186	0.76301
0.78501	0.76867
0.79909	0.77244
0.81346	0.77684
0.8266	0.78249
0.83917	0.78657
0.85224	0.7894
0.86596	0.79317
0.87947	0.796
0.8929	0.80071
0.90698	0.80259
0.91955	0.80322
0.93234	0.80699
0.94548	0.8117
0.95942	0.81202
0.9735	0.81327
0.98643	0.8183
0.99972	0.81987
1.01222	0.8205
1.02601	0.82144
1.04533	0.82741
1.05395	0.82929
1.06667	0.82992
