Adsorption isotherm of Nitrogen on UiO-66-(OH)2
DOI: 10.1021/acs.inorgchem.5b00435
Article source: Figure 4d- UiO 66 OH 2
Adsorbate Nitrogen: InChIKey IJGRMHOSHXDMSA-UHFFFAOYSA-N
Kind: experiment
Temperature: 298 K
Tabular data in the source: 0
pressure (bar)	uptake (mmol/g)
0.01884	0.005425
0.02915	0.007874
0.03999	0.010128
0.05232	0.01284
0.06615	0.015976
0.07901	0.01897
0.09224	0.021294
0.10532	0.023725
0.11967	0.026032
0.1329	0.029008
0.14569	0.031139
0.15944	0.033975
0.1726	0.03644
0.1853	0.038659
0.19906	0.041072
0.21244	0.043484
0.22642	0.046302
0.2401	0.047763
0.25318	0.050088
0.26424	0.052307
0.27882	0.054208
0.29294	0.056515
0.30632	0.058611
0.31888	0.060495
0.33294	0.062731
0.34684	0.065055
0.35887	0.066693
0.37278	0.068894
0.38668	0.071536
0.40044	0.074054
0.41322	0.075991
0.42675	0.078315
0.4405	0.080358
0.45269	0.082277
0.46801	0.084478
0.48087	0.08638
0.49305	0.088247
0.50583	0.090254
0.51944	0.092437
0.53409	0.094815
0.54792	0.096381
0.55973	0.097896
0.57356	0.099727
0.58694	0.101293
0.59942	0.103266
0.61348	0.105572
0.62566	0.106875
0.63971	0.108882
0.65466	0.110942
0.667	0.11295
0.68	0.11464
0.69271	0.116453
0.70587	0.118461
0.71977	0.121367
0.73241	0.122757
0.74728	0.125029
0.75976	0.12679
0.77217	0.128832
0.7875	0.130082
0.79901	0.131878
0.81329	0.13392
0.82555	0.135752
0.84005	0.137688
0.85276	0.13922
0.86554	0.141492
0.89372	0.145224
0.90673	0.146439
0.91921	0.148129
0.93364	0.14892
0.94694	0.152073
0.95995	0.153657
0.97236	0.154836
0.98678	0.156333
0.99957	0.158146
1.03978	0.162124
1.05309	0.163638
0.0755	0.001453
0.09554	0.005434
0.10712	0.007265
0.12641	0.01084
0.17313	0.021179
0.1948	0.025529
0.21013	0.028664
0.2321	0.032203
0.2401	0.034088
0.26058	0.038103
0.26895	0.039847
0.27718	0.04115
0.29684	0.04543
0.31126	0.048336
0.32741	0.051154
0.33705	0.053355
0.3461	0.054711
0.36531	0.058586
0.37644	0.060523
0.38594	0.062249
0.40343	0.065242
0.41382	0.06695
0.43221	0.069997
0.44364	0.072216
0.45471	0.074153
0.47168	0.076301
0.48438	0.079031
0.49313	0.0794
0.51122	0.082411
0.5249	0.085705
0.53544	0.086761
0.55031	0.088539
0.58029	0.09354
0.62992	0.102187
0.65571	0.105444
0.77943	0.120716
0.7964	0.123842
1.0267	0.161791
1.06759	0.167809
