Adsorption isotherm of Nitrogen on UiO-66-NH2
DOI: 10.1021/acs.inorgchem.5b00435
Article source: Figure 3a- UiO 66 NH2
Adsorbate Nitrogen: InChIKey IJGRMHOSHXDMSA-UHFFFAOYSA-N
Kind: experiment
Temperature: 77 K
Tabular data in the source: 0
pressure (bar)	uptake (cm3(STP)/g)
0.678128	280.47
0.686659	282.82
0.697035	284.21
0.71042	287.29
0.726602	290.73
0.738072	291.61
0.748518	294.1
0.764548	296.52
0.779189	297.18
0.789707	299.37
0.799343	304.22
0.810965	307.74
0.821624	311.4
0.831858	315.73
0.84193	318.59
0.853481	323.44
0.862154	326.81
0.872013	330.18
0.879592	333.05
0.891802	339.8
0.900485	344.2
0.912472	351.54
0.919241	356.01
0.931896	366.51
0.939617	373.56
0.944845	385.89
0.950732	399.47
0.956913	408.94
0.96354	421.13
0.969792	428.62
0.977158	440.58
0.982599	455.93
0.987898	464.88
0.990482	477.66
0.992022	483.9
0.006465	174.32
0.020437	187.38
0.030519	193.84
0.040226	198.68
0.051554	201.54
0.061119	205.28
0.071191	207.92
0.080908	211.15
0.091274	211.73
0.100839	213.64
0.109735	214.74
0.118419	217.38
0.129595	219.14
0.140335	221.04
0.150701	221.92
0.160631	223.24
0.169679	223.89
0.181889	226.09
0.190714	226.53
0.200715	228.8
0.210938	228.51
0.221537	229.38
0.231173	231.73
0.242197	233.56
0.252208	233.92
0.260881	235.02
0.271176	236.49
0.281917	237.51
0.291107	237.95
0.301411	239.41
0.31126	241.03
0.322659	241.61
0.332883	242.71
0.342002	243.88
0.351496	244.83
0.361568	245.27
0.371873	246.73
0.384153	247.53
0.393637	249.73
0.40298	250.83
0.414602	251.56
0.42365	252.07
0.434086	252.29
0.44351	253.97
0.45424	255.29
0.46572	255.29
0.474171	258.22
0.486309	260.2
0.494547	261
0.503889	261.3
0.514549	259.82
0.524043	262.83
0.535148	265.91
0.543538	267.01
0.566701	274.05
0.576489	276.98
0.596784	281.82
0.607889	284.83
0.622673	289.3
0.636068	293.63
0.649088	296.56
0.666516	302.58
0.675493	308.01
0.684461	309.33
0.693732	315.56
0.701747	318.79
0.711089	323.12
0.720877	329.14
0.735295	339.41
0.754203	350.2
0.796941	380
0.805696	387.92
0.81136	396.6
0.81975	408.92
0.871851	482.4
0.891488	489.15
0.902299	492.6
0.910983	494.28
0.922969	497.58
0.957096	501.17
0.966144	501.16
0.974746	499.4
0.985487	498.81
0.998943	493.81
