Adsorption isotherm of Carbon Dioxide on UiO-66-(F)4
DOI: 10.1021/acs.inorgchem.5b00435
Article source: Figure 4- UiO 66 F4
Adsorbate Carbon Dioxide: InChIKey CURLTUGMZLYLDI-UHFFFAOYSA-N
Kind: experiment
Temperature: 298 K
Tabular data in the source: 0
pressure (bar)	uptake (mmol/g)
0.01106	0.02312
0.17493	0.30056
0.18673	0.32039
0.20033	0.33796
0.21341	0.3647
0.2291	0.37989
0.23979	0.39984
0.25399	0.41933
0.26789	0.43633
0.28051	0.45401
0.29464	0.47327
0.30727	0.49027
0.32034	0.50931
0.33387	0.52677
0.34717	0.54218
0.361	0.56258
0.3746	0.58048
0.3882	0.59635
0.40113	0.61244
0.41391	0.6274
0.42736	0.64576
0.44051	0.65913
0.45381	0.67749
0.46652	0.69608
0.48027	0.70922
0.49454	0.72622
0.50769	0.74299
0.52002	0.75841
0.53407	0.77382
0.54745	0.78674
0.5606	0.80124
0.57286	0.81484
0.58721	0.83229
0.59939	0.84589
0.61389	0.8604
0.62614	0.87309
0.64027	0.88782
0.65387	0.90391
0.66635	0.91615
0.68048	0.9302
0.69475	0.94358
0.70671	0.9565
0.71971	0.96964
0.73271	0.98392
0.74639	0.99321
0.76096	1.00976
0.77307	1.02177
0.7857	1.03582
0.80057	1.04579
0.81328	1.05622
0.82673	1.07163
0.84011	1.08115
0.85289	1.09747
0.86769	1.10517
0.88047	1.119
0.89377	1.13033
0.90625	1.14189
0.92015	1.15345
0.93353	1.16636
0.94541	1.17838
0.95954	1.18427
0.97314	1.20104
0.98682	1.20761
0.99945	1.22302
1.01223	1.23209
1.02658	1.24251
1.03853	1.25498
1.05281	1.25996
0.01395	0.11085
0.02643	0.13805
0.04033	0.17092
0.05468	0.1954
0.06768	0.21852
0.08105	0.24345
0.09465	0.26975
0.10817	0.29853
0.12133	0.31984
0.13478	0.34432
0.14778	0.36585
0.1616	0.38671
0.17408	0.40711
0.18813	0.42909
0.20076	0.44859
0.21451	0.46853
0.22758	0.48916
0.24096	0.50684
0.25404	0.52565
0.26749	0.54469
0.28049	0.56396
0.29432	0.58322
0.30784	0.59977
0.32099	0.61994
0.33467	0.63513
0.34805	0.6528
0.3606	0.6723
0.37473	0.68884
0.38743	0.70698
0.40028	0.7208
0.41411	0.73553
0.42793	0.75412
0.44124	0.76976
0.45379	0.78449
0.46717	0.80081
0.48054	0.8126
0.494	0.83027
0.50662	0.84727
0.51985	0.8611
0.5333	0.87447
0.54735	0.88943
0.56043	0.90212
0.57374	0.91731
0.58719	0.92977
0.60079	0.94541
0.61364	0.95674
0.62777	0.96921
0.63995	0.9819
0.65348	0.99414
0.66693	1.00434
0.68031	1.01612
0.69316	1.02836
0.70676	1.04219
0.72022	1.05057
0.73382	1.06462
0.7469	1.07618
0.75998	1.08706
0.77373	1.09794
0.78651	1.10723
0.79996	1.11992
0.81379	1.12944
0.82649	1.13828
0.84039	1.15052
0.85362	1.16026
0.86625	1.16411
0.87911	1.16932
0.89286	1.18292
0.90572	1.19085
0.91954	1.19879
0.93322	1.20649
0.94615	1.21669
0.95953	1.22054
0.97104	1.22915
0.98554	1.23595
0.99854	1.24161
1.01147	1.24682
1.02852	1.25657
1.0407	1.25906
1.05281	1.26336
1.06671	1.26789
