Adsorption isotherm of Nitrogen on UiO-66-NH2
DOI: 10.1021/acs.inorgchem.5b00435
Article source: Figure 4c- UiO 66 NH2
Adsorbate Nitrogen: InChIKey IJGRMHOSHXDMSA-UHFFFAOYSA-N
Kind: experiment
Temperature: 273 K
Tabular data in the source: 0
pressure (bar)	uptake (mmol/g)
0.02286	0.008235
0.03301	0.010822
0.04192	0.013472
0.05254	0.01688
0.06703	0.021045
0.07981	0.024925
0.09454	0.029342
0.10771	0.033539
0.12042	0.037325
0.13468	0.041679
0.14754	0.044992
0.16095	0.048589
0.17435	0.052217
0.18791	0.056224
0.19985	0.0596
0.21333	0.064112
0.22697	0.067645
0.24045	0.071494
0.2544	0.074712
0.26687	0.078593
0.2802	0.082474
0.29345	0.085818
0.30717	0.089289
0.32034	0.092255
0.33406	0.096861
0.34723	0.098975
0.35924	0.103266
0.37179	0.106547
0.38512	0.110049
0.39938	0.113804
0.41209	0.116927
0.42774	0.120713
0.43933	0.12255
0.45339	0.12581
0.46647	0.129586
0.48083	0.133601
0.49557	0.135429
0.5068	0.139802
0.51978	0.142545
0.53423	0.146162
0.54702	0.148825
0.56166	0.151926
0.57201	0.155504
0.58568	0.15765
0.59925	0.161347
0.61253	0.165044
0.62747	0.168343
0.63977	0.172159
0.65285	0.174663
0.66632	0.178082
0.67999	0.181342
0.69268	0.184363
0.70645	0.187423
0.72061	0.190882
0.73408	0.194062
0.74716	0.196327
0.75995	0.200342
0.77323	0.203642
0.78904	0.206265
0.79959	0.209445
0.81306	0.212824
0.82575	0.215289
0.83884	0.218787
0.85241	0.221728
0.87994	0.228247
0.8938	0.231865
0.90679	0.235124
0.92055	0.237907
0.93354	0.240808
0.94769	0.243909
0.96097	0.246771
0.98481	0.253034
1.00031	0.256126
1.02596	0.260227
1.03743	0.262152
0.08051	0.017826
0.09384	0.022148
0.10701	0.025776
0.12104	0.029373
0.13452	0.032654
0.14738	0.038081
0.16056	0.041457
0.17381	0.046316
0.18652	0.050323
0.20039	0.053762
0.21348	0.056759
0.22681	0.060672
0.23998	0.064489
0.25293	0.068465
0.26711	0.071935
0.28082	0.075564
0.29337	0.079224
0.30957	0.083641
0.3198	0.086512
0.33398	0.090108
0.34676	0.093611
0.36335	0.097996
0.37389	0.101214
0.38504	0.104306
0.40566	0.109323
0.41635	0.112604
0.42805	0.115475
0.44029	0.118756
0.45355	0.121533
0.4692	0.125887
0.47974	0.128947
0.49818	0.133743
0.51011	0.136709
0.51933	0.139517
0.53568	0.143871
0.54715	0.146363
0.56002	0.149802
0.57373	0.153273
0.58667	0.156207
0.60015	0.159709
0.61379	0.162864
0.62619	0.166208
0.64006	0.169931
0.65277	0.173654
0.66703	0.176525
0.68005	0.180564
0.69384	0.182993
0.70748	0.186116
0.71995	0.188893
0.73375	0.19189
0.74723	0.194477
0.76033	0.197537
0.7752	0.200818
0.78698	0.203185
0.79961	0.206876
0.8124	0.210063
0.82573	0.213817
0.83944	0.216657
0.85308	0.220569
0.86579	0.224292
0.88012	0.227163
0.89252	0.230476
0.90577	0.233725
0.91988	0.23666
0.93266	0.240004
0.94638	0.243096
0.96002	0.245841
0.97342	0.24928
0.98605	0.251646
0.99985	0.25458
1.01294	0.25723
1.02596	0.25887
1.04394	0.263603
1.05478	0.26578
1.06633	0.268462
