Adsorption isotherm of Water on UiO-66-(COOH)4
DOI: 10.1021/acs.inorgchem.5b00435
Article source: Figure 6- UiO 66 COOH 4
Adsorbate Water: InChIKey XLYOFNOQVPJJNP-UHFFFAOYSA-N
Kind: experiment
Temperature: 273 K
Tabular data in the source: 0
pressure (bar)	uptake (cm3(STP)/g)
0.000109	19.69
0.000172	22.28
0.000235	24.95
0.00029	29.46
0.00035	33.71
0.000412	36.05
0.000465	38.64
0.000524	40.47
0.000581	42.06
0.000647	44.14
0.000701	45.31
0.000762	47.4
0.000819	49.49
0.000883	51.74
0.00094	53.82
0.000997	55.91
0.001049	56.91
0.001107	58.25
0.001173	61.59
0.001224	65.59
0.001285	67.93
0.001342	71.02
0.001406	73.6
0.001458	74.52
0.001525	77.44
0.00159	80.19
0.001658	82.03
0.00175	85.7
0.001841	87.37
0.001961	89.54
0.002084	91.71
0.002148	94.21
0.002231	97.64
0.002298	99.47
0.002332	100.06
0.002419	100.56
0.002468	101.89
0.002527	106.23
0.002569	108.32
0.00266	112.07
0.002709	113.57
0.0028	115.99
0.002873	117.91
0.002908	118.66
0.002993	122.5
0.003043	124.09
0.003094	126.34
0.00314	128.68
0.003227	134.44
0.003277	136.19
0.003323	137.36
0.003366	138.19
0.003458	143.7
0.003505	144.62
0.003545	145.7
0.0036	148.96
0.00369	153.63
0.003739	155.13
0.003779	157.89
0.003835	160.39
0.003915	163.73
0.003958	164.9
0.004045	170.9
0.004082	172.91
0.004161	176.58
0.004205	178.58
0.004274	183.92
0.004318	187.18
0.004398	190.93
0.004435	194.35
0.004499	198.53
0.004538	201.95
0.004604	206.62
0.004662	212.46
0.004734	218.47
0.004792	224.06
0.004844	229.32
0.004902	234.74
0.004953	242.17
0.005021	250.68
0.005079	256.69
0.005212	274.55
0.005246	283.56
0.005298	293.99
0.005353	302.84
0.005406	313.69
0.005459	325.45
0.005514	341.06
0.00558	358
0.005621	372.1
0.00564	382.95
0.005667	396.63
0.00569	406.56
0.005721	418
0.00026	169.4
0.00032	174.24
0.000381	179.67
0.000446	184.01
0.00051	188.34
0.000575	191.77
0.000637	195.35
0.000703	198.69
0.000766	201.03
0.000833	203.7
0.000892	206.95
0.000959	208.04
0.001027	211.54
0.001078	212.71
0.001154	215.3
0.001216	217.22
0.001285	219.39
0.001343	221.47
0.001405	222.81
0.001476	224.81
0.00152	225.98
0.001591	227.57
0.001648	227.98
0.001706	230.74
0.001782	231.99
0.001844	234.33
0.001907	235.16
0.001978	237.58
0.002048	240.25
0.002087	240.25
0.002161	242.75
0.002239	244.92
0.002262	245.76
0.002356	248.18
0.002422	248.51
0.002468	249.51
0.002512	250.51
0.00262	254.1
0.002663	254.6
0.00275	257.52
0.002811	257.61
0.002856	258.19
0.002947	260.95
0.002991	261.11
0.003052	263.53
0.003138	265.87
0.003179	266.37
0.00323	267.87
0.003281	269.29
0.003386	272.04
0.003438	272.55
0.003486	274.05
0.003588	277.05
0.003642	278.05
0.003696	278.14
0.003789	282.81
0.003831	283.98
0.003876	286.06
0.003966	288.48
0.004019	289.82
0.004075	292.49
0.004161	295.83
0.004226	299.08
0.004267	300.75
0.004326	302.5
0.004404	307.76
0.004459	312.85
0.00455	317.02
0.004611	325.87
0.004676	331.21
0.00473	336.8
0.004804	345.06
0.004878	352.82
0.004925	359.75
0.004992	367.76
0.005066	377.44
0.005127	386.62
0.005187	392.55
0.005258	402.73
0.005327	409.15
0.005366	412.16
0.00546	420.25
0.005496	422.5
0.005517	424.34
0.005548	427.59
0.005578	427.84
0.005609	428.85
0.005638	429.18
0.00568	430.1
0.005753	429.85
