Adsorption isotherm of Nitrogen on UiO-66-(F)4
DOI: 10.1021/acs.inorgchem.5b00435
Article source: Figure 4c- UiO 66 F4
Adsorbate Nitrogen: InChIKey IJGRMHOSHXDMSA-UHFFFAOYSA-N
Kind: experiment
Temperature: 273 K
Tabular data in the source: 0
pressure (bar)	uptake (mmol/g)
0.00922	0.007131
0.02333	0.010665
0.02999	0.013126
0.03968	0.017259
0.05355	0.02256
0.06703	0.026914
0.07998	0.031994
0.09408	0.036316
0.10601	0.041333
0.11927	0.045908
0.13321	0.051019
0.14647	0.055815
0.1598	0.060358
0.17297	0.064397
0.187	0.069792
0.20025	0.074115
0.21365	0.079321
0.2266	0.082633
0.23954	0.087776
0.25341	0.092667
0.26627	0.096769
0.2796	0.101438
0.29285	0.105508
0.30704	0.11002
0.3206	0.114406
0.33369	0.119233
0.34656	0.123713
0.35973	0.128415
0.37345	0.132832
0.38647	0.137438
0.39972	0.142045
0.41414	0.145799
0.42646	0.149144
0.43971	0.153939
0.45327	0.157883
0.46722	0.161827
0.47915	0.165455
0.49287	0.169715
0.50697	0.17369
0.52069	0.179338
0.53301	0.183187
0.54673	0.187731
0.55998	0.191959
0.57292	0.19565
0.5878	0.200509
0.64042	0.216695
0.66685	0.226002
0.67785	0.22881
0.69087	0.232849
0.7049	0.236982
0.71846	0.24162
0.73125	0.245185
0.7431	0.249224
0.76031	0.253704
0.77364	0.257932
0.78596	0.260961
0.79107	0.26339
0.81308	0.268123
0.8237	0.272256
0.83641	0.276421
0.85074	0.278471
0.86586	0.281247
0.87934	0.285318
0.89306	0.288662
0.90677	0.293868
0.92033	0.296613
0.9325	0.301093
0.94777	0.304437
0.96055	0.308981
0.97435	0.312672
0.98597	0.314628
0.99837	0.318635
1.01248	0.322926
1.02573	0.326965
1.04022	0.332675
1.05533	0.334947
0.31169	0.100207
0.32432	0.105065
0.33827	0.111218
0.35005	0.11472
0.36082	0.120147
0.37368	0.12447
0.38996	0.130906
0.40158	0.136239
0.41344	0.141287
0.42746	0.145988
0.4401	0.149112
0.45304	0.154065
0.46668	0.158482
0.47954	0.16312
0.49318	0.168137
0.50659	0.173406
0.51992	0.178265
0.53317	0.183314
0.54642	0.187289
0.55936	0.190949
0.57316	0.194924
0.58579	0.199341
0.60005	0.204263
0.61299	0.209122
0.62624	0.21335
0.64019	0.217799
0.65321	0.221553
0.66669	0.22616
0.6801	0.230009
0.69289	0.233985
0.7066	0.238212
0.72024	0.242851
0.73303	0.246479
0.74659	0.250296
0.75914	0.253546
0.77247	0.25749
0.78658	0.261876
0.79944	0.267334
0.81308	0.270868
0.82571	0.274465
0.83927	0.278661
0.85284	0.281974
0.86593	0.285602
0.87895	0.288946
0.89259	0.294247
0.90631	0.29797
0.91917	0.301788
0.9332	0.305006
0.94637	0.308161
0.95924	0.311537
0.97257	0.315796
0.98574	0.318888
0.99992	0.322769
1.01178	0.325261
1.02612	0.328732
1.04107	0.332991
1.05239	0.335326
1.05936	0.337282
