Adsorption isotherm of Carbon Dioxide on UiO-66-(COOH)4
DOI: 10.1021/acs.inorgchem.5b00435
Article source: Figure 4- UiO 66 COOH 4
Adsorbate Carbon Dioxide: InChIKey CURLTUGMZLYLDI-UHFFFAOYSA-N
Kind: experiment
Temperature: 298 K
Tabular data in the source: 0
pressure (bar)	uptake (mmol/g)
0.01525	0.08955
0.0287	0.11834
0.04119	0.14282
0.05397	0.16412
0.06705	0.18338
0.08118	0.19993
0.09442	0.21398
0.10795	0.22689
0.12081	0.24162
0.13449	0.25091
0.14742	0.26722
0.16103	0.27402
0.17471	0.2824
0.18734	0.2944
0.2008	0.30641
0.2144	0.31593
0.22786	0.32499
0.2399	0.33291
0.25373	0.34333
0.26823	0.35194
0.28027	0.35987
0.29298	0.36711
0.30763	0.37323
0.31996	0.38229
0.3332	0.38727
0.34807	0.39701
0.36153	0.40176
0.37312	0.40765
0.3865	0.41535
0.39996	0.4201
0.41439	0.42734
0.42612	0.43096
0.44078	0.43594
0.45393	0.43865
0.46664	0.44499
0.4798	0.44793
0.49401	0.4554
0.50671	0.46016
0.5204	0.46514
0.53273	0.46672
0.54701	0.47011
0.56062	0.47667
0.57392	0.48029
0.58604	0.48142
0.59912	0.4864
0.61138	0.4907
0.62581	0.49318
0.63799	0.49771
0.65205	0.49996
0.66423	0.50358
0.67993	0.50675
0.69302	0.50742
0.70625	0.51194
0.71933	0.51692
0.73301	0.51623
0.74692	0.52144
0.76008	0.52166
0.77309	0.52505
0.7849	0.52482
0.7997	0.52821
0.81248	0.53024
0.82639	0.53227
0.83955	0.53566
0.853	0.53747
0.86616	0.53723
0.87962	0.53926
0.89382	0.53857
0.90758	0.54038
0.91954	0.54196
0.93539	0.54194
0.9475	0.54216
0.96029	0.54488
0.97172	0.54509
0.98548	0.54463
0.99939	0.54621
1.01329	0.54643
1.02682	0.54778
1.04484	0.54686
1.05561	0.54526
1.0666	0.54571
0.02033	0.05939
0.03297	0.08568
0.0527	0.11877
0.06668	0.13758
0.08081	0.15617
0.09382	0.1709
0.10743	0.18381
0.12073	0.19196
0.13434	0.20556
0.14832	0.22074
0.16006	0.23048
0.17291	0.24045
0.18675	0.2452
0.20058	0.25404
0.21441	0.26559
0.22719	0.2717
0.24065	0.28167
0.25515	0.29594
0.26756	0.29775
0.27982	0.31021
0.29343	0.31406
0.30629	0.32266
0.31922	0.32696
0.33365	0.33172
0.34718	0.3401
0.35996	0.34485
0.37454	0.35368
0.3862	0.35639
0.40056	0.36364
0.41401	0.37179
0.4277	0.37541
0.4407	0.38447
0.45416	0.38696
0.46664	0.39239
0.47988	0.39964
0.49453	0.40235
0.50791	0.40914
0.5204	0.41208
0.5337	0.41661
0.54724	0.42249
0.56107	0.4252
0.5737	0.432
0.58731	0.43856
0.60032	0.44037
0.61407	0.44444
0.62753	0.44761
0.64024	0.45236
0.65429	0.45507
0.66693	0.45892
0.68121	0.46231
0.69399	0.46661
0.70685	0.46886
0.72075	0.47226
0.73346	0.47701
0.74767	0.47904
0.76038	0.48289
0.77346	0.48582
0.78737	0.49058
0.8006	0.49283
0.81376	0.49441
0.82676	0.49871
0.83992	0.50437
0.8545	0.50618
0.86646	0.51093
0.88052	0.51205
0.89427	0.51227
0.90691	0.51816
0.92126	0.52041
0.93412	0.52381
0.9475	0.52538
0.96081	0.52968
0.97442	0.52967
0.98705	0.5308
1.00111	0.54031
1.01411	0.54098
1.03572	0.54346
