Adsorption isotherm of Carbon Dioxide on UiO-66-(OCH2CH3)2
DOI: 10.1021/acs.inorgchem.5b00435
Article source: Figure 4- UiO 66 OCH2CH3 2
Adsorbate Carbon Dioxide: InChIKey CURLTUGMZLYLDI-UHFFFAOYSA-N
Kind: experiment
Temperature: 298 K
Tabular data in the source: 0
pressure (bar)	uptake (mmol/g)
0.03102	0.05122
0.04979	0.07751
0.06848	0.10335
0.08066	0.11808
0.0933	0.13348
0.10758	0.14527
0.12088	0.16022
0.13389	0.1711
0.14787	0.18378
0.16148	0.19874
0.17478	0.20621
0.18727	0.22207
0.20035	0.23
0.21388	0.24337
0.22727	0.25311
0.24087	0.26308
0.25358	0.27622
0.26801	0.28755
0.28027	0.29638
0.2935	0.30544
0.30726	0.31201
0.32116	0.32402
0.33462	0.34146
0.34703	0.34735
0.3637	0.35732
0.3794	0.36653
0.39323	0.37521
0.70042	0.56886
0.71425	0.57721
0.72741	0.5761
0.74116	0.57972
0.75342	0.57653
0.76628	0.57539
0.77847	0.57878
0.792	0.58376
0.80523	0.58715
0.81861	0.58896
0.83147	0.59031
0.84052	0.59393
0.8539	0.59324
0.86683	0.59981
0.87992	0.60388
0.89412	0.61181
0.90668	0.61452
0.92059	0.61859
0.93412	0.6272
0.94713	0.63195
0.96036	0.63602
0.97426	0.63987
0.98765	0.64666
1.0005	0.64801
1.01351	0.65345
1.02719	0.65774
1.03848	0.66159
1.05239	0.66408
0.36235	0.40788
0.37581	0.41762
0.38844	0.42328
0.40145	0.42826
0.41543	0.43278
0.42837	0.43754
0.43988	0.44569
0.45401	0.45861
0.46769	0.46631
0.4801	0.46811
0.49371	0.48125
0.50746	0.4826
0.52062	0.4903
0.5343	0.49846
0.54783	0.50026
0.56002	0.50932
0.57318	0.51657
0.58566	0.51906
0.59934	0.52608
0.61384	0.52879
0.62723	0.53921
0.64136	0.54623
0.65421	0.55053
0.66715	0.55709
0.67933	0.56185
0.69331	0.56592
0.70617	0.57339
0.72045	0.57928
0.73294	0.58426
0.74654	0.58765
0.76	0.59195
0.77211	0.59715
0.78519	0.60145
0.80022	0.60552
0.81353	0.61073
0.82646	0.61321
0.84052	0.62001
0.85427	0.6234
0.86683	0.62498
0.87962	0.63132
0.89322	0.63176
0.9075	0.63583
0.91916	0.64217
0.93397	0.64488
0.94623	0.64828
0.95931	0.65076
0.97292	0.65393
0.9857	0.65845
0.99953	0.65935
1.01299	0.66274
1.02218	0.66228
1.03609	0.66386
1.05112	0.66771
1.06697	0.67064
