Adsorption isotherm of Nitrogen on UiO-66-NH2
DOI: 10.1021/acs.inorgchem.5b00435
Article source: Figure 4d- UiO 66 NH2
Adsorbate Nitrogen: InChIKey IJGRMHOSHXDMSA-UHFFFAOYSA-N
Kind: experiment
Temperature: 298 K
Tabular data in the source: 0
pressure (bar)	uptake (mmol/g)
0.08103	0.013665
0.09389	0.015655
0.10824	0.017715
0.12117	0.020128
0.13463	0.022717
0.14718	0.025517
0.16056	0.027842
0.17394	0.030378
0.18717	0.03272
0.20063	0.034956
0.21364	0.037281
0.22702	0.039623
0.2407	0.042106
0.25445	0.044113
0.26671	0.046861
0.28181	0.048692
0.29489	0.050594
0.3082	0.052918
0.32038	0.055648
0.33421	0.05866
0.34736	0.060297
0.36209	0.062534
0.373	0.065194
0.38795	0.06757
0.47878	0.082873
0.49373	0.085211
0.50613	0.087381
0.52041	0.089635
0.53267	0.091608
0.54613	0.093967
0.56003	0.09601
0.57281	0.098141
0.58724	0.100113
0.59995	0.101961
0.6134	0.103793
0.62604	0.105377
0.63927	0.107437
0.65414	0.10888
0.66663	0.111258
0.68023	0.112807
0.69301	0.114797
0.70617	0.116646
0.71992	0.118864
0.73323	0.120625
0.74623	0.123055
0.76021	0.124886
0.77292	0.126488
0.78705	0.128214
0.79976	0.13082
0.81314	0.133039
0.82682	0.135011
0.84005	0.136701
0.85403	0.138303
0.86688	0.140522
0.87974	0.143023
0.89409	0.143991
0.90628	0.145223
0.91981	0.146789
0.93334	0.147898
0.94679	0.14994
0.9601	0.151525
0.97326	0.153162
0.98679	0.154799
1.00002	0.157194
1.01355	0.158497
1.02633	0.159905
1.04517	0.162458
1.05735	0.163109
1.06759	0.163953
0.3209	0.059261
0.33324	0.061321
0.34609	0.063064
0.3733	0.067555
0.38638	0.06958
0.39924	0.071305
0.4127	0.0734
0.4257	0.075267
0.44073	0.077961
0.45246	0.079916
0.46547	0.081481
0.47915	0.083543
0.57408	0.098281
0.58687	0.100412
0.71918	0.118071
0.73151	0.119724
0.74541	0.121875
0.76021	0.124534
0.77359	0.126136
0.78683	0.127808
0.80312	0.129516
0.81374	0.131153
0.82614	0.132808
0.83938	0.134076
0.85223	0.13596
0.86629	0.137756
0.88079	0.140468
0.8935	0.142405
0.90665	0.143866
0.91921	0.145291
0.93424	0.146541
0.94702	0.148584
0.9607	0.149815
0.97355	0.151893
0.98776	0.153284
1.00204	0.155414
1.01489	0.157721
1.02581	0.159764
1.03896	0.16112
