Adsorption isotherm of Nitrogen on UiO-66-(COOH)4
DOI: 10.1021/acs.inorgchem.5b00435
Article source: Figure 4d- UiO 66 COOH 4
Adsorbate Nitrogen: InChIKey IJGRMHOSHXDMSA-UHFFFAOYSA-N
Kind: experiment
Temperature: 298 K
Tabular data in the source: 0
pressure (bar)	uptake (mmol/g)
0.02153	0.002905
0.037	0.005124
0.04986	0.006444
0.06616	0.008134
0.0817	0.010246
0.09426	0.01132
0.10742	0.012781
0.12013	0.013942
0.13388	0.015703
0.14801	0.016917
0.16049	0.018942
0.17447	0.020297
0.18666	0.021635
0.19959	0.023132
0.21319	0.024275
0.22605	0.025684
0.23988	0.026827
0.25296	0.027918
0.26634	0.029379
0.2804	0.030558
0.29325	0.031984
0.30671	0.03341
0.31957	0.034836
0.3331	0.036033
0.34715	0.037388
0.35911	0.038796
0.37316	0.040046
0.38684	0.041366
0.40015	0.042263
0.4136	0.043477
0.42654	0.044744
0.43917	0.045835
0.453	0.047226
0.46578	0.048511
0.47931	0.049566
0.49299	0.050975
0.50592	0.052048
0.51915	0.052751
0.53313	0.054336
0.54636	0.055638
0.55877	0.056835
0.57298	0.057767
0.58658	0.058558
0.60071	0.059702
0.61469	0.060388
0.62777	0.061937
0.6407	0.062887
0.65446	0.063625
0.66717	0.064329
0.67995	0.065296
0.69445	0.066246
0.70761	0.066879
0.72181	0.067089
0.73512	0.067951
0.74768	0.068953
0.75941	0.069622
0.7713	0.07096
0.81301	0.072999
0.82647	0.074283
0.84022	0.074687
0.85278	0.07569
0.86713	0.076675
0.87969	0.078189
0.89329	0.078663
0.90735	0.078556
0.91968	0.080087
0.93374	0.07961
0.94585	0.081758
0.95968	0.081369
0.97029	0.083412
0.98846	0.084079
1.00004	0.085082
1.01335	0.085715
1.02823	0.086401
1.05372	0.087596
0.1211	0.000672
0.1383	0.002944
0.14988	0.005057
0.15952	0.006959
0.17014	0.00832
0.19077	0.011061
0.32024	0.025654
0.33071	0.026823
0.35059	0.028911
0.36151	0.029262
0.37339	0.030811
0.38296	0.031885
0.40441	0.03375
0.41398	0.034895
0.42587	0.035986
0.43558	0.036654
0.45666	0.039048
0.46907	0.04028
0.47894	0.041548
0.4903	0.043379
0.51108	0.045069
0.52245	0.046195
0.53329	0.047498
0.5442	0.048307
0.56483	0.050701
0.57627	0.05218
0.58688	0.053113
0.59795	0.054468
0.61918	0.057162
0.63061	0.058553
0.64063	0.059644
0.65139	0.060965
0.67307	0.062196
0.68399	0.062829
0.69475	0.064748
0.70275	0.065064
0.71486	0.065521
0.73751	0.066981
0.7485	0.068566
0.75627	0.069305
0.77287	0.070254
0.78857	0.071962
0.79836	0.072384
0.81249	0.072611
0.82572	0.073385
0.84007	0.075181
0.853	0.076324
0.86706	0.077539
0.87984	0.079123
0.89277	0.080285
0.906	0.081076
0.91961	0.081462
0.93209	0.082447
0.946	0.083573
0.9599	0.084435
0.97769	0.085931
0.98883	0.086423
0.99915	0.086298
1.0117	0.086297
1.03114	0.087123
1.04146	0.087774
1.05259	0.087772
1.06358	0.088018
