Adsorption isotherm of Nitrogen on UiO-66-(F)4
DOI: 10.1021/acs.inorgchem.5b00435
Article source: Figure 3a- UiO 66 F4
Adsorbate Nitrogen: InChIKey IJGRMHOSHXDMSA-UHFFFAOYSA-N
Kind: experiment
Temperature: 77 K
Tabular data in the source: 0
pressure (bar)	uptake (cm3(STP)/g)
0.508591	232.88
0.525502	233.9
0.537266	234.63
0.547348	236.31
0.55904	238.73
0.571473	239.24
0.586327	243.79
0.596115	243.93
0.607362	245.1
0.615164	245.91
0.624496	248.03
0.635612	249.5
0.647892	251.84
0.658116	253.24
0.668634	255.43
0.677895	257.49
0.688929	257.92
0.698048	261.08
0.708941	262.84
0.719012	263.27
0.728506	265.18
0.73946	268.11
0.74939	270.46
0.759248	273.02
0.770131	275.66
0.780061	279.33
0.789403	280.87
0.799778	284.83
0.811542	288.13
0.820297	290.77
0.828828	291.65
0.83964	295.32
0.850968	298.84
0.860381	301.11
0.872003	304.78
0.881568	308.59
0.892238	312.41
0.901792	315.12
0.911874	320.04
0.922098	324.37
0.933203	329.21
0.941958	333.54
0.95358	339.7
0.961453	344.54
0.974919	351.66
0.982275	358.78
0.984555	370.97
0.987939	379.85
0.992215	389.1
0.005654	181.29
0.018674	196.73
0.029344	200.74
0.041776	203.35
0.049791	204.88
0.833621	329.31
0.84576	331.52
0.85267	332.69
0.862083	334.1
0.871871	340.24
0.879156	343.84
0.891802	349.86
0.902107	355.65
0.910932	362.18
0.920791	368.28
0.930579	376.28
0.952789	388.53
0.963013	393.01
0.973754	396.45
0.986115	399.97
0.996633	398.65
