Adsorption isotherm of Nitrogen on UiO-66
DOI: 10.1021/acs.inorgchem.5b00435
Article source: Figure 4d- UiO 66
Adsorbate Nitrogen: InChIKey IJGRMHOSHXDMSA-UHFFFAOYSA-N
Kind: experiment
Temperature: 298 K
Tabular data in the source: 0
pressure (bar)	uptake (mmol/g)
0.02616	0.005865
0.03969	0.009652
0.05337	0.012083
0.06615	0.014636
0.08021	0.017454
0.09291	0.019937
0.10637	0.02265
0.11893	0.024622
0.13283	0.027193
0.14606	0.029817
0.15937	0.032477
0.17327	0.034607
0.18605	0.036879
0.19988	0.039609
0.21206	0.041863
0.22619	0.044187
0.23957	0.046212
0.2537	0.048678
0.26641	0.050632
0.27904	0.052657
0.29302	0.054859
0.30707	0.056883
0.31986	0.058274
0.33391	0.060334
0.34669	0.062289
0.35947	0.064384
0.37308	0.066691
0.38728	0.068698
0.40006	0.070565
0.41337	0.072643
0.42615	0.074104
0.43938	0.076358
0.45269	0.078682
0.46562	0.080461
0.4787	0.082257
0.49171	0.084141
0.50546	0.086201
0.51929	0.088014
0.5326	0.089299
0.54643	0.091712
0.5604	0.093543
0.57274	0.095374
0.58552	0.097381
0.59898	0.099124
0.61303	0.101061
0.62626	0.10187
0.63874	0.103948
0.65197	0.106555
0.6673	0.108033
0.67918	0.110217
0.69354	0.111008
0.70639	0.111817
0.7209	0.113419
0.73413	0.114986
0.74631	0.117416
0.75842	0.118631
0.77292	0.120162
0.78758	0.121781
0.80043	0.12289
0.81329	0.124316
0.82637	0.126359
0.84057	0.128172
0.85253	0.129897
0.86711	0.130953
0.88004	0.133577
0.89342	0.13562
0.90755	0.136957
0.92108	0.138313
0.93267	0.138893
0.95016	0.139966
0.96152	0.142167
0.97483	0.143857
0.98888	0.144842
1.00009	0.145863
1.01288	0.148205
0.18441	0.023486
0.20527	0.027907
0.21738	0.029844
0.22814	0.031358
0.23943	0.033277
0.25101	0.035532
0.2617	0.037592
0.28443	0.041061
0.29631	0.043069
0.3079	0.045111
0.31889	0.046996
0.33018	0.048774
0.35253	0.052402
0.36426	0.054251
0.37585	0.056276
0.38743	0.058336
0.3985	0.060062
0.40964	0.061664
0.43228	0.065239
0.44402	0.067387
0.45508	0.069342
0.466	0.070874
0.47878	0.072635
0.48999	0.074307
0.51204	0.077512
0.52326	0.079696
0.53529	0.081457
0.54643	0.083323
0.55817	0.084908
0.56923	0.086827
0.59158	0.090578
0.60324	0.092427
0.6146	0.094611
0.62664	0.096125
0.6377	0.097833
0.64959	0.099559
0.67216	0.103151
0.68427	0.10544
0.69533	0.107254
0.70774	0.109385
0.71843	0.111534
0.73054	0.112501
0.74198	0.114086
0.76493	0.116621
0.77606	0.118276
0.78795	0.119438
0.79924	0.12074
0.81606	0.122324
0.82749	0.124561
0.84013	0.12604
0.85837	0.128011
0.87055	0.130177
0.88281	0.13081
0.89402	0.132254
0.90531	0.133592
0.91607	0.135582
0.92863	0.136497
0.95113	0.138802
0.96354	0.139523
0.97498	0.141196
0.98619	0.142939
0.9995	0.144647
1.01258	0.146796
1.03059	0.150124
1.04293	0.151391
1.05519	0.152606
1.06707	0.15419
