Adsorption isotherm of Water on UiO-66-(OH)2
DOI: 10.1021/acs.inorgchem.5b00435
Article source: Figure 6- UiO 66 OH 2
Adsorbate Water: InChIKey XLYOFNOQVPJJNP-UHFFFAOYSA-N
Kind: experiment
Temperature: 273 K
Tabular data in the source: 0
pressure (bar)	uptake (cm3(STP)/g)
0.001339	143.2
0.001366	147.2
0.001474	152.46
0.001524	154.88
0.001602	158.47
0.001635	159.55
0.001711	162.56
0.001789	165.81
0.001842	168.07
0.001914	169.15
0.001975	172.41
0.002043	174.16
0.002112	176.91
0.00217	178.66
0.002241	179.67
0.002287	181.59
0.002362	183.25
0.002428	185.09
0.002488	186.68
0.002534	188.01
0.002615	191.1
0.00269	192.93
0.002748	194.19
0.002796	195.44
0.002875	198.19
0.002915	199.78
0.002977	201.45
0.003032	202.2
0.003136	205.7
0.003185	207.04
0.003272	210.04
0.003324	211.79
0.003366	212.96
0.003461	216.38
0.003511	218.3
0.003563	219.55
0.003649	223.23
0.003705	224.23
0.003761	226.98
0.003843	229.99
0.003894	230.82
0.003946	232.32
0.004033	237.25
0.004088	239.58
0.004136	239.83
0.004234	245.76
0.004278	245.84
0.004363	251.93
0.004413	253.6
0.004457	256.27
0.004539	262.11
0.004615	266.7
0.00467	268.46
0.004714	271.38
0.004803	278.22
0.004842	279.89
0.004932	286.56
0.004973	289.32
0.005058	295.33
0.005117	300.17
0.005165	302.84
0.005246	308.68
0.005294	310.35
0.005521	321.95
0.005566	322.45
0.00564	324.7
0.005751	325.54
0.000124	13.43
0.000176	18.78
0.000695	72.52
0.000761	79.38
0.000824	80.78
0.00088	84.53
0.000949	87.29
0.001006	89.37
0.001059	93.3
0.001105	96.05
0.001173	99.39
0.001228	102.56
0.001283	105.73
0.001341	107.9
0.001394	109.9
0.001479	113.91
0.00152	117.41
0.001601	120.17
0.001724	123.92
0.001853	128.51
0.00191	130.93
0.001999	132.02
0.002074	134.52
0.002158	137.94
0.002231	138.28
0.00227	139.69
0.002328	142.7
0.002399	146.2
0.002453	147.12
0.00251	148.37
0.002585	150.38
0.002636	151.04
0.002738	154.13
0.002818	156.88
0.002875	158.55
0.002943	159.47
0.002976	160.14
0.003051	162.73
0.003148	165.48
0.003253	169.15
0.003322	169.9
0.003482	176.41
0.003552	177.75
0.003601	179.92
0.003645	181.92
0.00369	182
0.003733	183.84
0.003786	186.18
0.003883	189.76
0.003946	191.68
0.004002	194.27
0.004048	195.52
0.004095	198.86
0.00414	199.36
0.004223	202.78
0.004277	204.28
0.004331	206.87
0.004381	210.38
0.004425	211.88
0.004506	216.72
0.004581	217.64
0.004643	220.89
0.004739	226.56
0.004958	238.25
0.005011	241.5
0.005072	245.59
0.005154	251.85
0.005244	260.86
0.005311	265.7
0.005374	269.62
0.005555	293.82
0.005651	304.26
0.005699	316.69
