Adsorption isotherm of Nitrogen on UiO-66-(F)4
DOI: 10.1021/acs.inorgchem.5b00435
Article source: Figure 4d- UiO 66 F4
Adsorbate Nitrogen: InChIKey IJGRMHOSHXDMSA-UHFFFAOYSA-N
Kind: experiment
Temperature: 298 K
Tabular data in the source: 0
pressure (bar)	uptake (mmol/g)
0.01001	0.00659
0.02399	0.010007
0.03117	0.011839
0.04051	0.014657
0.05322	0.018268
0.0666	0.022232
0.07998	0.024979
0.09298	0.027991
0.10659	0.032554
0.1193	0.035054
0.13298	0.038137
0.14583	0.04099
0.16018	0.044442
0.17304	0.048406
0.18664	0.051065
0.2001	0.054465
0.21333	0.057071
0.22693	0.05959
0.23987	0.061491
0.25302	0.064309
0.26588	0.066898
0.27963	0.06924
0.29324	0.072252
0.30662	0.075141
0.32015	0.076989
0.33308	0.078997
0.34713	0.082097
0.36014	0.08502
0.37277	0.08731
0.38623	0.088965
0.39976	0.091818
0.41314	0.094407
0.42719	0.096484
0.44005	0.099267
0.45365	0.101979
0.46718	0.105009
0.47974	0.107316
0.49372	0.109464
0.50583	0.112036
0.52078	0.114184
0.53378	0.115821
0.54686	0.118551
0.56002	0.121827
0.57422	0.123394
0.58738	0.125401
0.60016	0.126898
0.61294	0.129363
0.62647	0.131406
0.64142	0.134347
0.65331	0.137042
0.68089	0.142272
0.69352	0.144879
0.70713	0.147943
0.71976	0.149704
0.73344	0.151676
0.74682	0.153454
0.75953	0.156026
0.77164	0.157628
0.78509	0.158543
0.79892	0.160797
0.81387	0.163509
0.82695	0.165869
0.83877	0.167665
0.85304	0.169866
0.86657	0.171908
0.87921	0.173352
0.89393	0.176311
0.90776	0.178212
0.92122	0.178316
0.93452	0.179495
0.94671	0.18071
0.95994	0.181942
0.97347	0.18446
0.9867	0.185886
1.00068	0.187928
1.01398	0.189759
1.02505	0.193018
1.0403	0.193598
1.05375	0.196222
0.05681	0.000786
0.13717	0.021659
0.25579	0.052431
0.2688	0.055674
0.28308	0.057362
0.29616	0.060762
0.30961	0.064796
0.32008	0.06846
0.33809	0.072088
0.34983	0.073761
0.36201	0.076385
0.37913	0.079484
0.39019	0.082779
0.40305	0.085297
0.41426	0.088256
0.42682	0.090845
0.4467	0.09435
0.45806	0.09715
0.46987	0.099246
0.48101	0.10247
0.49297	0.10601
0.50889	0.109321
0.52055	0.111382
0.53266	0.113319
0.54844	0.116348
0.56152	0.118003
0.57318	0.120204
0.58753	0.123463
0.60001	0.125329
0.61444	0.127654
0.62707	0.129397
0.63948	0.133113
0.65323	0.135174
0.66624	0.139701
0.68	0.141144
0.69263	0.144438
0.70646	0.147362
0.71969	0.148664
0.73262	0.150496
0.7466	0.151921
0.7596	0.154827
0.77306	0.157734
0.78696	0.160217
0.80042	0.161255
0.81328	0.163879
0.82673	0.166644
0.83981	0.168528
0.85357	0.171505
0.8662	0.17471
0.88003	0.176101
0.89378	0.17802
0.90686	0.180256
0.91965	0.180907
0.9334	0.182051
0.94686	0.183741
0.96031	0.185325
0.97347	0.187985
0.98617	0.189939
1.00008	0.191347
1.01301	0.192755
1.02654	0.195803
1.04164	0.196294
1.05495	0.196874
1.06892	0.198423
