Adsorption isotherm of Water on UiO-66 (solvothermal)
DOI: 10.1021/acs.inorgchem.5b00435
Article source: Figure 6- UiO 66 Solvothermal
Adsorbate Water: InChIKey XLYOFNOQVPJJNP-UHFFFAOYSA-N
Kind: experiment
Temperature: 273 K
Tabular data in the source: 0
pressure (bar)	uptake (cm3(STP)/g)
0.000418	5.67
0.00048	6.51
0.000529	6.59
0.00058	7.51
0.000625	8.6
0.000705	9.93
0.00076	11.19
0.00082	12.36
0.000875	13.11
0.000927	13.78
0.000991	14.61
0.001047	16.12
0.001106	15.87
0.001165	17.79
0.001224	19.29
0.001283	20.21
0.001342	21.38
0.001398	22.63
0.001458	23.72
0.001509	24.05
0.001569	27.14
0.001625	30.23
0.001688	31.99
0.001749	33.91
0.001808	37.33
0.001869	41
0.001922	45.85
0.00197	55.86
0.002008	67.63
0.002009	78.15
0.002025	100.69
0.002034	116.8
0.002047	160.21
0.002048	159.91
0.002056	228.74
0.002058	230.47
0.002059	258.79
0.002062	269.3
0.002063	280.99
0.002064	315.63
0.002066	326.07
0.002067	301.86
0.002071	337.25
0.002077	346.68
0.002079	360.46
0.002084	391.93
0.00209	414.05
0.002095	403.61
0.002099	425.65
0.002109	435.83
0.002111	446.52
0.002116	457.87
0.002125	469.56
0.002126	511.27
0.002127	479.91
0.002133	490.59
0.002137	503.03
0.002143	513.46
0.002155	524.48
0.002163	543.76
0.002179	555.28
0.00219	565.3
0.002218	577.32
0.002245	587.92
0.002271	594.27
0.002331	604.87
0.002382	611.88
0.002457	620.23
0.002504	624.49
0.002568	628.99
0.002631	633.84
0.0027	637.76
0.002757	640.6
0.002801	643.02
0.002861	646.44
0.002922	648.95
0.002995	652.29
0.003029	653.29
0.003102	655.55
0.003149	657.72
0.003223	660.81
0.003276	661.39
0.003358	665.23
0.003399	665.74
0.003449	668.99
0.003512	670.41
0.003561	671.33
0.003642	673.17
0.003696	675.51
0.003746	676.93
0.003794	678.01
0.003858	680.93
0.003912	681.85
0.003966	684.27
0.004036	685.36
0.004091	687.95
0.004143	688.95
0.004222	691.29
0.004282	691.96
0.004353	695.38
0.004448	700.06
0.004504	700.31
0.004554	702.98
0.004601	704.48
0.004684	705.24
0.00474	706.41
0.004797	708.74
0.004841	710.92
0.004922	713.67
0.004979	715.59
0.005029	716.09
0.00508	720.1
0.005301	727.28
0.005379	730.12
0.005433	731.96
0.005487	733.38
0.000188	114.94
0.000252	123.7
0.000316	130.55
0.000382	136.14
0.000443	139.9
0.000509	144.16
0.000576	146.66
0.000635	150.75
0.000951	166.62
0.001009	168.7
0.001216	182.15
0.001277	193.08
0.001318	203.02
0.001356	211.45
0.001443	247.76
0.001522	282.32
0.001539	287.74
0.001569	301.1
0.00159	311.12
0.001607	322.22
0.00162	332.24
0.00164	342.5
0.001672	360.87
0.001674	365.38
0.001685	374.31
0.001697	384.24
0.001707	394.42
0.001716	402.94
0.001735	423.64
0.00174	436.74
0.001745	445.09
0.00175	455.11
0.001756	413.21
0.001757	462.37
0.00176	471.89
0.001765	480.74
0.001766	491.34
0.001775	500.27
0.001798	519.3
0.001814	530.57
0.001856	510.2
0.001863	545.66
0.001876	545.93
0.001927	578.65
0.001927	578.68
0.001941	585.83
0.001991	595.43
0.002023	564.71
0.002049	604.7
0.00211	611.63
0.002177	618.64
0.002246	624.23
0.002309	629.99
0.002367	633.58
0.00243	637.34
0.002487	640.68
0.002552	642.77
0.002611	648.28
0.002692	651.12
0.002758	656.38
0.002819	658.46
0.002858	661.72
0.002936	664.14
0.003004	667.73
0.003065	669.82
0.003116	672.41
0.003186	675.58
0.003259	677.92
0.003335	680.34
0.003369	682.43
0.003455	684.85
0.003483	685.02
0.003579	688.53
0.003657	691.11
0.003725	693.2
0.003743	693.7
0.003805	695.79
0.003897	698.3
0.00397	700.47
0.004008	701.55
0.004066	702.31
0.00416	706.31
0.004211	707.48
0.004292	708.9
0.004337	711.41
0.004393	712.16
0.004484	714.92
0.004531	715.17
0.004595	716
0.004685	719.01
0.004725	722.1
0.004772	722.6
0.004836	722.85
0.004909	724.77
0.005004	727.53
0.005048	728.28
0.005089	730.12
0.005161	730.29
0.005318	735.55
0.005373	736.63
0.005425	737.89
0.0055	740.47
0.005557	742.31
0.005653	749.58
0.005683	749.33
0.005766	750.25
