Adsorption isotherm of Nitrogen on UiO-66-(COOH)2
DOI: 10.1021/acs.inorgchem.5b00435
Article source: Figure 3a- UiO 66 COOH 2
Adsorbate Nitrogen: InChIKey IJGRMHOSHXDMSA-UHFFFAOYSA-N
Kind: experiment
Temperature: 77 K
Tabular data in the source: 0
pressure (bar)	uptake (cm3(STP)/g)
0.008724	111.9
0.020488	116.52
0.030489	120.12
0.040348	121.51
0.051453	124.44
0.061677	124.81
0.07109	126.42
0.081313	127.15
0.091395	128.25
0.100139	128.39
0.111397	128.83
0.120222	130
0.131398	130.73
0.141328	131.75
0.152433	132.34
0.162951	132.04
0.172658	132.84
0.182517	133.21
0.191636	133.42
0.20267	133.49
0.212235	133.49
0.222672	133.93
0.232379	133.48
0.241427	133.7
0.252755	134.21
0.259301	135.31
0.264377	135.97
0.274743	136.55
0.284754	136.55
0.292181	137.06
0.302546	137.2
0.312324	137.05
0.320937	137.12
0.331961	137.26
0.342479	137.48
0.351821	137.11
0.362196	137.11
0.370353	137.4
0.381975	137.17
0.39154	138.64
0.402493	138.96
0.412879	139.4
0.477595	145.07
0.489501	145.21
0.500019	145.35
0.511418	146.38
0.523333	146.67
0.53532	146.22
0.547459	147.03
0.560479	147.17
0.571139	147.53
0.581585	147.82
0.589083	148.11
0.686913	155.64
0.700733	156.26
0.711474	157.39
0.723683	162.06
0.732509	162.01
0.803629	159.05
0.81289	159.06
0.823853	161.83
0.834817	162.12
0.842973	162.48
0.853349	164.39
0.862762	165.93
0.911895	172.15
0.923739	174.57
0.933294	176.77
0.941309	179.56
0.951168	183.52
0.963236	186.23
0.975517	187.7
0.987655	189.38
0.995599	190.99
1.00457	189.81
0.003931	105.2
0.004154	105.62
0.00533	106.91
0.019242	112.56
0.030712	116.23
0.041006	118.57
0.050055	119.38
0.059843	120.4
0.071242	121.79
0.081384	124.28
0.091314	124.85
0.101903	125.14
0.61792	147.88
0.623362	148.13
0.631153	148.49
0.640496	148.02
0.649615	148.09
0.657853	148.45
0.667418	148.6
0.677712	148.23
0.689699	148.81
0.699781	149.54
0.716915	149.61
0.724271	149.97
0.785603	155.02
0.79223	155.65
0.802079	155.08
0.815322	155.45
0.88173	159.83
0.891812	160.6
0.898135	162.83
0.905937	164.08
0.920132	167.16
0.931308	168.25
0.940428	169.28
0.951979	172.73
0.963155	174.48
0.971616	175.95
0.98191	179.1
0.994789	184.24
