Adsorption isotherm of Nitrogen on UiO-66-(OH)2
DOI: 10.1021/acs.inorgchem.5b00435
Article source: Figure 4c- UiO 66 OH 2
Adsorbate Nitrogen: InChIKey IJGRMHOSHXDMSA-UHFFFAOYSA-N
Kind: experiment
Temperature: 273 K
Tabular data in the source: 0
pressure (bar)	uptake (mmol/g)
0.01751	0.00833
0.04107	0.014451
0.05494	0.018647
0.06874	0.022591
0.08091	0.026251
0.09377	0.030163
0.10617	0.035022
0.12035	0.039439
0.13275	0.043288
0.14778	0.047421
0.15964	0.052028
0.17274	0.055562
0.18614	0.059916
0.20102	0.063512
0.21373	0.067614
0.22729	0.071432
0.23993	0.075123
0.25442	0.078278
0.26736	0.083137
0.28092	0.086892
0.2934	0.09093
0.3075	0.094401
0.31951	0.098597
0.33261	0.102636
0.34788	0.105822
0.36152	0.110807
0.37384	0.114341
0.38616	0.117464
0.40019	0.122134
0.41406	0.126299
0.42739	0.130243
0.4411	0.133334
0.45397	0.136837
0.46722	0.141853
0.4807	0.144914
0.4938	0.148826
0.50659	0.152328
0.51945	0.155767
0.53201	0.159048
0.54603	0.162172
0.55897	0.165769
0.57393	0.169681
0.58594	0.172867
0.5995	0.17659
0.61283	0.18066
0.62593	0.184352
0.63903	0.188674
0.65282	0.191735
0.66677	0.195521
0.67909	0.198297
0.69413	0.202557
0.72063	0.209336
0.73233	0.212274
0.84028	0.24048
0.8533	0.243675
0.86632	0.246664
0.87957	0.249811
0.89282	0.252911
1.01387	0.281432
1.0255	0.283172
1.03914	0.286922
0.35932	0.106958
0.37234	0.110681
0.38683	0.114467
0.40248	0.119515
0.41325	0.122102
0.42937	0.126929
0.4396	0.129485
0.45579	0.13365
0.46625	0.137025
0.48299	0.141032
0.49376	0.144598
0.50763	0.148699
0.51918	0.152107
0.53297	0.156429
0.54622	0.159458
0.55916	0.163749
0.57272	0.167851
0.58636	0.171605
0.6	0.175044
0.6124	0.179241
0.62689	0.18249
0.63983	0.184983
0.65308	0.189715
0.66633	0.193691
0.67997	0.197571
0.69345	0.201105
0.70678	0.20467
0.71957	0.208204
0.73258	0.21117
0.74661	0.214924
0.75963	0.218647
0.7735	0.221707
0.78597	0.224642
0.7993	0.227923
0.81325	0.231583
0.82573	0.234643
0.83952	0.238398
0.85324	0.241584
0.86594	0.244297
0.87966	0.247989
0.89244	0.251239
0.90647	0.255277
0.91887	0.258401
0.93258	0.261903
0.94638	0.265689
0.95909	0.269349
0.9735	0.272346
0.98659	0.275501
1.00008	0.277835
1.01286	0.281621
1.02689	0.284556
1.04673	0.288278
1.05657	0.290771
1.06664	0.29279
