Adsorption isotherm of Nitrogen on UiO-66
DOI: 10.1021/acs.inorgchem.5b00435
Article source: Figure 4c- UiO 66
Adsorbate Nitrogen: InChIKey IJGRMHOSHXDMSA-UHFFFAOYSA-N
Kind: experiment
Temperature: 273 K
Tabular data in the source: 0
pressure (bar)	uptake (mmol/g)
0.53367	0.149992
0.5487	0.153431
0.5618	0.15747
0.57373	0.16236
0.58574	0.166241
0.59985	0.169459
0.61209	0.172109
0.62557	0.176874
0.63867	0.180565
0.65231	0.18372
0.66501	0.186528
0.68012	0.190345
0.69322	0.194163
0.70616	0.196845
0.71949	0.200221
0.7322	0.202461
0.747	0.205837
0.76064	0.209307
0.77365	0.212557
0.78597	0.215649
0.79954	0.219435
0.81317	0.221832
0.82642	0.225587
0.83944	0.229121
0.85285	0.231487
0.86633	0.234421
0.87935	0.237639
0.89221	0.24111
0.9057	0.244643
0.91933	0.247704
0.93313	0.251584
0.9456	0.254424
0.95932	0.257642
0.97342	0.26086
0.98605	0.263636
1	0.265876
1.01263	0.269094
1.0203	0.269126
1.03224	0.272502
1.04378	0.274836
1.05509	0.277171
1.0678	0.279979
