Adsorption isotherm of Water on UiO-66-(COOH)2
DOI: 10.1021/acs.inorgchem.5b00435
Article source: Figure 6- UiO 66 COOH 2
Adsorbate Water: InChIKey XLYOFNOQVPJJNP-UHFFFAOYSA-N
Kind: experiment
Temperature: 273 K
Tabular data in the source: 0
pressure (bar)	uptake (cm3(STP)/g)
3e-06	39.64
4.2e-05	45.48
0.000106	62.93
0.000164	77.79
0.00021	91.06
0.000279	105.42
0.00035	116.61
0.000423	125.71
0.000482	130.72
0.000536	133.64
0.000588	138.56
0.000696	148.92
0.000762	153.51
0.000818	155.18
0.00086	157.77
0.000922	161.52
0.000989	165.28
0.001041	168.54
0.001114	171.29
0.001179	173.21
0.001248	175.05
0.00132	178.98
0.001587	188.41
0.001685	188.75
0.001781	192.42
0.001845	194.18
0.001917	195.26
0.001997	197.1
0.002093	199.44
0.00218	200.69
0.002305	205.7
0.002366	206.87
0.00244	207.54
0.002488	207.87
0.002527	209.21
0.002576	210.21
0.002638	211.88
0.002694	213.97
0.002756	214.89
0.002813	215.14
0.00287	215.31
0.002939	218.32
0.003005	219.15
0.003064	220.15
0.003124	221.66
0.003185	223.16
0.003242	225.58
0.003329	225.42
0.00341	226.84
0.003472	228.84
0.003534	230.76
0.003606	232.1
0.003684	234.44
0.003758	236.78
0.003818	236.69
0.003889	238.11
0.003949	238.36
0.004033	239.87
0.004089	240.74
0.004188	243.88
0.004779	264.59
0.004857	268.61
0.004917	271.02
0.004986	274.11
0.005074	277.45
0.000248	167.11
0.000319	176.04
0.000385	183.22
0.000446	188.65
0.000507	193.4
0.000577	198.58
0.000645	201.42
0.000709	204.34
0.000765	207.1
0.000827	210.1
0.000899	212.44
0.000965	214.86
0.001199	220.13
0.001285	223.05
0.001397	225.39
0.001472	227.98
0.001529	229.65
0.001614	231.15
0.001707	234.07
0.001779	234.74
0.001845	237.16
0.001915	239.51
0.001973	240.5
0.002965	256.71
0.003051	258.07
0.003099	258.78
0.003167	258.22
0.003234	258.64
0.003291	259.89
0.003346	261.98
0.003421	262.56
0.003481	262.65
0.003562	263.73
0.003645	264.4
0.003738	266.24
0.003813	267.41
0.003892	268.08
0.003959	268.92
0.004028	269.33
0.004091	270
0.00417	271.51
0.004209	271.92
0.004277	272.84
0.004344	274.35
0.004473	276.02
0.004518	276.77
0.004599	279.53
0.004657	278.28
0.004724	281.28
0.004788	281.87
0.004959	285.63
0.005027	287.13
0.005097	289.13
0.005166	289.72
0.005321	292.22
0.005373	293.64
0.005418	294.06
0.005504	295.23
0.005758	299.99
