Adsorption isotherm of Nitrogen on UiO-66-(COOH)4
DOI: 10.1021/acs.inorgchem.5b00435
Article source: Figure 3a- UiO 66 COOH 4
Adsorbate Nitrogen: InChIKey IJGRMHOSHXDMSA-UHFFFAOYSA-N
Kind: experiment
Temperature: 77 K
Tabular data in the source: 0
pressure (bar)	uptake (cm3(STP)/g)
0.001034	21.45
0.001925	21.59
0.433367	81.05
0.443226	81.46
0.453075	82.66
0.466318	84.27
0.473968	84.93
0.481618	85.96
0.492865	86.83
0.504345	87.93
0.516251	89.1
0.525451	89.39
0.534206	91.81
0.546709	92.84
0.556558	92.83
0.56664	94.88
0.57811	96.86
0.588333	97.08
0.596277	99.06
0.607605	100.67
0.6179	101.91
0.628418	104.26
0.637243	106.31
0.648723	107.63
0.658359	108.07
0.668208	110.93
0.678361	111
0.688432	112.68
0.69822	114.81
0.70962	116.2
0.71881	118.55
0.728821	119.79
0.74022	121.62
0.749481	123.16
0.760292	125.43
0.768317	127.49
0.779422	129.91
0.790305	132.77
0.800528	135.11
0.809506	138.85
0.818625	140.54
0.830835	144.5
0.840248	148.17
0.850248	152.13
0.860401	156.38
0.872104	161.15
0.881882	165.7
0.890637	170.84
0.902188	176.64
0.910496	182.21
0.922118	189.99
0.931248	197.4
0.943386	206.51
0.952577	214.51
0.963023	224.12
0.970977	235.65
0.975466	248.71
0.985031	265.01
0.00921	34.07
0.01759	35.31
0.028401	39.35
0.03826	41.84
0.047744	43.89
0.057826	45.14
0.068415	46.6
0.081141	48.21
0.090483	50.19
0.10019	50.34
0.109016	51.8
0.118581	52.61
0.128723	54.36
0.139829	54.51
0.150204	56.41
0.160357	57.73
0.17131	58.9
0.181017	59.93
0.190288	60.44
0.199995	61.24
0.210361	62.19
0.221841	63.07
0.231477	64.39
0.241701	64.75
0.250445	65.11
0.260821	66.36
0.270011	67.75
0.281491	68.04
0.291786	68.48
0.302151	70.09
0.312598	71.11
0.323703	71.48
0.335254	72.13
0.343563	73.16
0.353634	74.55
0.362389	74.99
0.374892	76.38
0.383718	76.74
0.394529	78.2
0.403729	78.94
0.41373	79.23
0.423731	80.69
0.433296	82.01
0.443733	82.37
0.454696	84.35
0.465507	85.23
0.475437	85.96
0.483969	87.72
0.493453	88.23
0.504639	90.06
0.514934	91.01
0.524124	93.65
0.53604	93.79
0.544936	95.26
0.553984	96.36
0.563914	97.23
0.574584	98.19
0.58576	99.5
0.596277	101.63
0.606207	103.31
0.617019	105.51
0.62474	107.13
0.63622	108.37
0.647325	111.3
0.65689	112.77
0.667843	115.77
0.677844	119.59
0.68976	122.38
0.698595	126.78
0.709994	128.9
0.717422	132.57
0.729408	136.83
0.73875	140.93
0.749714	144.46
0.758985	147.9
0.770313	154.21
0.780243	158.69
0.793405	164.12
0.800245	167.35
0.807459	170.35
0.816649	181.22
0.824228	189.81
0.832395	197.22
0.836813	209.19
0.841595	217.56
0.850208	226.14
0.8611	235.83
0.871689	245.52
0.881842	252.42
0.89163	258.29
0.902806	262.84
0.911195	264.67
0.922149	268.27
0.931785	271.49
0.940985	272.89
0.954664	275.3
0.959882	276.62
0.980107	277.72
0.997241	276.83
1.00585	274.84
