Adsorption isotherm of Carbon Dioxide on UiO-66-(F)4
DOI: 10.1021/acs.inorgchem.5b00435
Article source: Figure 4a- UiO 66 F4
Adsorbate Carbon Dioxide: InChIKey CURLTUGMZLYLDI-UHFFFAOYSA-N
Kind: experiment
Temperature: 273 K
Tabular data in the source: 0
pressure (bar)	uptake (mmol/g)
0.00912	0.03675
0.12273	0.3892
0.13458	0.42465
0.14665	0.45863
0.15993	0.49538
0.17358	0.53778
0.18615	0.57422
0.19972	0.60784
0.21358	0.6427
0.22701	0.67631
0.23944	0.70521
0.25272	0.73726
0.26651	0.7715
0.27994	0.80448
0.29287	0.83778
0.30644	0.86699
0.31995	0.90123
0.33302	0.9317
0.34623	0.96154
0.36052	0.99295
0.37317	1.02185
0.38688	1.0517
0.39981	1.0806
0.4136	1.11044
0.42689	1.14091
0.44032	1.16855
0.45353	1.20279
0.46567	1.22572
0.48032	1.25556
0.49318	1.28415
0.50761	1.31179
0.52033	1.33253
0.53426	1.35923
0.5474	1.38404
0.56055	1.41011
0.57276	1.43179
0.58648	1.45755
0.60041	1.47985
0.6142	1.50498
0.62734	1.53074
0.64092	1.55116
0.65327	1.56781
0.66663	1.59325
0.67956	1.61367
0.6922	1.6432
0.70678	1.66299
0.71992	1.68717
0.73415	1.70728
0.74679	1.73743
0.61211	1.62341
0.62633	1.64068
0.63911	1.66644
0.65312	1.68152
0.66734	1.69943
0.67962	1.72141
0.6932	1.74246
0.70649	1.76948
0.7192	1.78989
0.73313	1.80591
0.74671	1.83104
0.75985	1.84487
0.77328	1.86843
0.78635	1.88539
0.79964	1.90015
0.81358	1.92277
0.82679	1.94067
0.8403	1.95512
0.85344	1.97617
0.86702	1.99156
0.88037	2.0123
0.89345	2.02643
0.90717	2.04716
0.91952	2.06413
0.93324	2.07606
0.94696	2.09271
0.95989	2.10528
0.97404	2.11721
0.98661	2.13292
1.0004	2.14768
1.0129	2.15805
1.0269	2.17062
1.04177	2.1926
1.05427	2.19512
1.06835	2.19637
