Adsorption isotherm of Water on UiO-66-NH2
DOI: 10.1021/acs.inorgchem.5b00435
Article source: Figure 6- UiO 66 NH2
Adsorbate Water: InChIKey XLYOFNOQVPJJNP-UHFFFAOYSA-N
Kind: experiment
Temperature: 273 K
Tabular data in the source: 0
pressure (bar)	uptake (cm3(STP)/g)
0.00015	32.63
0.000407	58.68
0.000501	65.61
0.000572	74.12
0.000646	79.13
0.000708	86.48
0.000752	96.58
0.000811	102.42
0.000869	113.19
0.000932	120.54
0.000981	140.03
0.000982	140.66
0.001039	150.26
0.001076	164.2
0.001165	189.49
0.001217	205.18
0.001399	238.83
0.001468	248.68
0.00153	256.61
0.001598	264.46
0.001703	274.47
0.001765	279.57
0.001824	283.74
0.001895	287.42
0.002127	296.02
0.002341	303.11
0.002388	305.62
0.002489	308.46
0.002549	310.05
0.002627	313.22
0.002699	315.81
0.002758	317.73
0.002798	319.06
0.002855	322.24
0.002912	323.74
0.002998	327
0.003042	329.75
0.003096	332.01
0.003161	335.18
0.003211	336.02
0.003252	337.77
0.003327	341.11
0.003369	342.2
0.003469	345.87
0.003518	348.79
0.003566	351.55
0.003633	354.55
0.003673	356.47
0.003752	361.65
0.003805	362.82
0.00385	363.66
0.003902	367.75
0.003984	373.59
0.004027	375.01
0.004108	380.27
0.004157	382.52
0.004224	387.37
0.004265	390.21
0.004329	394.71
0.004361	398.39
0.004437	404.73
0.004497	410.66
0.00456	417
0.00462	423.68
0.004675	429.69
0.004727	436.46
0.004783	442.38
0.004823	448.14
0.004885	457.49
0.004932	466.01
0.005005	476.86
0.005059	488.21
0.005114	501.74
0.005175	515.93
0.005224	530.45
0.005273	544.98
0.00531	560.92
0.005361	570.69
0.005362	571.23
0.005386	591.64
0.005418	603.16
0.005444	613.18
0.005467	622.44
0.005486	631.88
0.005507	644.31
0.005526	654.58
0.005545	664.77
0.005556	674.87
0.005568	688.06
0.005576	703.75
0.005587	693.15
0.005606	715.52
0.00562	726.12
0.005623	734.97
0.005635	752.66
0.005642	742.15
0.005653	764.18
0.005659	772.61
0.005667	781.96
0.005674	791.4
0.005679	802
0.005696	811.43
0.005704	821.28
0.005716	830.88
0.005726	839.31
0.005727	847.91
0.005731	858.01
0.000931	261.19
0.000985	271.88
0.001042	282.56
0.00109	291.83
0.001154	303.01
0.001171	307.52
0.001219	316.95
0.001279	327.81
0.001348	336.66
0.00141	343.17
0.001471	347.93
0.001529	350.35
0.00159	353.02
0.00165	354.61
0.001717	357.95
0.001769	360.45
0.001836	362.62
0.001904	364.88
0.001964	367.47
0.002034	369.3
0.002106	371.22
0.00218	374.06
0.002209	375.32
0.002288	378.16
0.002369	380.58
0.002401	381.08
0.002499	384.42
0.002532	384.5
0.002628	388.43
0.002657	388.43
0.002749	392.19
0.002817	394.94
0.002878	396.53
0.002899	397.78
0.003002	401.79
0.003054	403.21
0.00313	405.96
0.003198	408.72
0.003245	410.56
0.003284	412.06
0.003386	417.15
0.003429	419.24
0.003524	423.42
0.00356	424.59
0.00365	430.01
0.003688	431.18
0.00377	436.19
0.003854	440.95
0.00389	444.04
0.00396	448.63
0.004025	452.81
0.004091	458.07
0.004158	463.24
0.004232	471.26
0.00429	476.77
0.004347	482.61
0.004422	492.13
0.004492	501.06
0.004554	510.49
0.00462	519.68
0.004677	530.7
0.004701	533.87
0.004737	542.47
0.004787	549.23
0.004802	558.16
0.004851	569.1
0.004875	580.11
0.004925	589.38
0.004947	600.15
0.004963	602.07
0.005001	612.59
0.005004	622.77
0.005028	630.95
0.005046	638.38
0.005068	650.23
0.005096	661.34
0.005113	671.44
0.00513	681.54
0.005159	692.22
0.005176	703.83
0.005195	713.51
0.005224	723.78
0.005243	734.54
0.005266	744.39
0.005294	755.16
0.005318	766.77
0.005342	775.03
0.005381	787.55
0.005388	795.9
0.005428	807.42
0.005442	817.27
0.005486	824.78
0.005505	833.46
0.005535	838.14
0.005564	848.91
0.005599	852.25
0.005639	863.93
0.005749	870.95
