Adsorption isotherm of Carbon Dioxide on UiO-66-(OH)2
DOI: 10.1021/acs.inorgchem.5b00435
Article source: Figure 4- UiO 66 OH 2
Adsorbate Carbon Dioxide: InChIKey CURLTUGMZLYLDI-UHFFFAOYSA-N
Kind: experiment
Temperature: 298 K
Tabular data in the source: 0
pressure (bar)	uptake (mmol/g)
0.02791	0.21377
0.04076	0.27792
0.05562	0.34547
0.06831	0.40509
0.07951	0.46471
0.0946	0.51934
0.10797	0.57238
0.12074	0.62044
0.13321	0.66918
0.14786	0.71202
0.16048	0.75667
0.17363	0.79748
0.18715	0.83896
0.20044	0.87817
0.21382	0.91467
0.22696	0.9523
0.24041	0.98721
0.25386	1.01962
0.26723	1.05453
0.28083	1.08468
0.29428	1.1146
0.3075	1.14406
0.32125	1.17353
0.3341	1.203
0.34778	1.22702
0.3607	1.25287
0.37445	1.28097
0.38723	1.30251
0.40053	1.32699
0.41353	1.35033
0.42735	1.37549
0.44081	1.39612
0.45426	1.42015
0.46718	1.43896
0.48063	1.46094
0.49371	1.47953
0.50731	1.49789
0.52106	1.52124
0.53406	1.53688
0.54736	1.55546
0.56067	1.57495
0.57449	1.5915
0.58742	1.61077
0.6005	1.62573
0.61402	1.64227
0.6274	1.6604
0.64003	1.67446
0.65356	1.68805
0.66723	1.70211
0.68083	1.71752
0.69436	1.72908
0.70804	1.74313
0.72074	1.75537
0.73397	1.76851
0.7469	1.77894
0.75998	1.79299
0.77343	1.80523
0.78591	1.81407
0.80004	1.82903
0.81356	1.83832
0.82731	1.85169
0.84002	1.86211
0.85325	1.87345
0.86678	1.88342
0.87963	1.89248
0.89286	1.90223
0.90646	1.91197
0.91954	1.92081
0.93232	1.93396
0.94592	1.94075
0.95945	1.94959
0.97231	1.95639
0.98561	1.96568
0.99921	1.97361
1.01244	1.98132
1.02769	1.98925
1.0383	1.99333
1.05602	2.00443
1.06671	2.00511
0.10641	0.51344
0.12031	0.55696
0.13442	0.60615
0.14764	0.64764
0.16027	0.68753
0.17319	0.72675
0.18611	0.77322
0.19762	0.80586
0.21368	0.83646
0.22384	0.88089
0.23796	0.91217
0.25014	0.94118
0.26635	0.97201
0.27958	0.99762
0.29243	1.02619
0.30707	1.05769
0.32194	1.08988
0.3342	1.11844
0.34832	1.14156
0.38784	1.21953
0.40152	1.23948
0.41303	1.26827
0.42782	1.29298
0.44179	1.31746
0.4545	1.33491
0.4672	1.3612
0.4802	1.3816
0.4935	1.39928
0.5077	1.42149
0.52026	1.43713
0.5349	1.45935
0.54768	1.47702
0.56038	1.49062
0.57406	1.5151
0.58841	1.52757
0.60081	1.54479
0.61456	1.56474
0.62712	1.58174
0.64109	1.60373
0.65477	1.62526
0.66762	1.64339
0.681	1.65495
0.69303	1.67036
0.70745	1.686
0.72016	1.70051
0.73353	1.71615
0.74743	1.73179
0.75961	1.74221
0.77299	1.75626
0.78689	1.76805
0.80049	1.7821
0.81439	1.79819
0.82695	1.81156
0.84093	1.8229
0.85341	1.83604
0.86641	1.84669
0.87926	1.85893
0.89421	1.87049
0.90654	1.88658
0.92022	1.89134
0.93345	1.90721
0.94615	1.91763
0.95953	1.92488
0.97231	1.93667
0.98659	1.94732
0.99967	1.95616
1.01312	1.96885
1.02754	1.97587
1.0395	1.98653
1.05348	1.99423
