Adsorption isotherm of Carbon Dioxide on UiO-66-(COOH)2
DOI: 10.1021/acs.inorgchem.5b00435
Article source: Figure 4- UiO 66 COOH 2
Adsorbate Carbon Dioxide: InChIKey CURLTUGMZLYLDI-UHFFFAOYSA-N
Kind: experiment
Temperature: 298 K
Tabular data in the source: 0
pressure (bar)	uptake (mmol/g)
0.01529	0.15483
0.02806	0.20742
0.04166	0.2582
0.05503	0.30512
0.06802	0.35159
0.0811	0.39466
0.09424	0.43659
0.10732	0.47581
0.12076	0.51616
0.13436	0.55515
0.14781	0.59028
0.16133	0.62723
0.17425	0.66033
0.18822	0.69319
0.20145	0.72515
0.21505	0.75507
0.22827	0.78454
0.24157	0.81446
0.25502	0.84234
0.26779	0.87204
0.28139	0.90014
0.29425	0.92485
0.30762	0.95092
0.32077	0.97313
0.33444	0.99897
0.34752	1.02459
0.36105	1.04975
0.37427	1.07241
0.38832	1.09395
0.40095	1.11865
0.4144	1.14019
0.42732	1.1624
0.44092	1.18144
0.4546	1.20229
0.46775	1.2236
0.4812	1.24468
0.49338	1.26394
0.50713	1.28366
0.52058	1.30157
0.53403	1.32038
0.54823	1.34101
0.56056	1.35823
0.57342	1.37591
0.58731	1.39473
0.60077	1.41036
0.61354	1.4285
0.62774	1.44686
0.6412	1.46
0.65308	1.47632
0.66728	1.49309
0.68073	1.50873
0.69388	1.52505
0.70741	1.53933
0.72093	1.55406
0.73356	1.56811
0.74709	1.58171
0.76054	1.59645
0.77355	1.60982
0.7867	1.62228
0.80015	1.63747
0.81375	1.64925
0.82705	1.66421
0.84103	1.67781
0.85329	1.68914
0.86771	1.69957
0.88072	1.71181
0.89372	1.72631
0.90687	1.73334
0.91995	1.74603
0.93378	1.75441
0.94738	1.76778
0.95949	1.77662
0.97316	1.78841
0.98602	1.79521
0.99962	1.80903
1.01292	1.81832
1.02623	1.82444
1.04491	1.83396
1.05583	1.83826
1.06809	1.83917
0.06715	0.2328
0.0812	0.27043
0.09434	0.31169
0.10667	0.34841
0.11907	0.38558
0.13371	0.42072
0.14701	0.45903
0.16024	0.49121
0.17353	0.52385
0.18893	0.55695
0.20051	0.58619
0.21485	0.61724
0.22808	0.64558
0.24182	0.67845
0.25363	0.70293
0.26738	0.73149
0.28053	0.76027
0.2945	0.78725
0.30742	0.81422
0.32035	0.83938
0.33358	0.86363
0.34688	0.88993
0.361	0.91418
0.37378	0.93821
0.38738	0.96156
0.40038	0.98581
0.41405	1.00916
0.42892	1.03205
0.44103	1.05154
0.45388	1.07511
0.46763	1.09506
0.4807	1.11954
0.49333	1.1379
0.50634	1.16011
0.52098	1.18119
0.53354	1.20273
0.54669	1.22018
0.56029	1.24035
0.57426	1.26098
0.58719	1.28183
0.60034	1.30019
0.61334	1.31674
0.6259	1.33759
0.64025	1.35527
0.65325	1.37272
0.66752	1.39289
0.68052	1.40989
0.69248	1.42576
0.70735	1.44344
0.72058	1.46157
0.73321	1.47812
0.74726	1.49602
0.76041	1.51189
0.77311	1.52639
0.78642	1.54226
0.80024	1.55835
0.81377	1.57603
0.82685	1.58963
0.83977	1.60459
0.85315	1.61796
0.8663	1.63428
0.87961	1.64969
0.89313	1.66805
0.90621	1.68346
0.91944	1.69525
0.93214	1.71066
0.94559	1.72766
0.9589	1.73763
0.97228	1.75078
0.9861	1.76483
1.00045	1.77911
1.01301	1.79112
1.02676	1.81016
1.04058	1.81786
1.05344	1.83124
