Adsorption isotherm of Carbon Dioxide on UiO-66-(OH)2
DOI: 10.1021/acs.inorgchem.5b00435
Article source: Figure 4a- UiO 66 OH 2
Adsorbate Carbon Dioxide: InChIKey CURLTUGMZLYLDI-UHFFFAOYSA-N
Kind: experiment
Temperature: 273 K
Tabular data in the source: 0
pressure (bar)	uptake (mmol/g)
0.00774	0.17497
0.02468	0.32229
0.08606	0.80542
0.09899	0.88489
0.11155	0.95746
0.12275	1.02342
0.13532	1.08845
0.1476	1.15127
0.16117	1.2141
0.1728	1.27881
0.18522	1.33504
0.19894	1.38561
0.21251	1.43682
0.22508	1.48174
0.23707	1.53514
0.25237	1.58069
0.26522	1.61932
0.27959	1.65042
0.29359	1.69503
0.3068	1.72456
0.31952	1.75974
0.33259	1.79555
0.34638	1.82916
0.36053	1.86371
0.37388	1.89136
0.38667	1.92183
0.40046	1.95198
0.41353	1.97711
0.42646	2.0035
0.43939	2.03052
0.45375	2.05784
0.46704	2.08392
0.48097	2.11062
0.49404	2.13543
0.50704	2.15554
0.51968	2.17784
0.53383	2.2014
0.54698	2.22904
0.56055	2.24758
0.5737	2.26705
0.58648	2.28621
0.59991	2.30632
0.61334	2.32579
0.62649	2.3459
0.63949	2.36223
0.65471	2.38234
0.667	2.40087
0.68014	2.41909
0.6935	2.4326
0.70664	2.4571
0.72022	2.47343
0.73365	2.48788
0.74723	2.5039
0.75994	2.52338
0.77344	2.53877
0.7868	2.55511
0.79952	2.56704
0.81359	2.58401
0.8271	2.6016
0.84024	2.61919
0.85296	2.6327
0.86567	2.64495
0.87946	2.65971
0.89246	2.6751
0.9074	2.68798
0.92054	2.71123
0.93261	2.71877
0.94676	2.73573
0.96048	2.75018
0.97442	2.75866
0.98634	2.77374
1.00035	2.78599
1.01392	2.79793
1.02822	2.81112
1.04136	2.81929
1.0553	2.8284
0.01119	0.24345
0.02712	0.40711
0.04025	0.55255
0.05339	0.67192
0.0666	0.78029
0.07938	0.88144
0.09302	0.97159
0.10651	1.05515
0.11929	1.13306
0.13272	1.20405
0.14615	1.27158
0.15994	1.33221
0.17351	1.39095
0.18615	1.44969
0.1995	1.50215
0.21293	1.54896
0.22629	1.59796
0.23986	1.64037
0.25257	1.68466
0.26586	1.72393
0.27958	1.76131
0.29293	1.79555
0.30629	1.8345
0.31908	1.8678
0.33315	1.90392
0.34673	1.93376
0.36023	1.96455
0.37323	1.99533
0.38666	2.02266
0.40002	2.05376
0.41309	2.07669
0.42695	2.10465
0.43952	2.12727
0.45295	2.14831
0.46638	2.17658
0.47938	2.19669
0.4926	2.2237
0.50682	2.24506
0.51932	2.26517
0.5326	2.2837
0.54582	2.30255
0.55997	2.32831
0.57319	2.34621
0.58597	2.36443
0.60034	2.38516
0.61305	2.40056
0.62698	2.42035
0.6402	2.43542
0.65334	2.45364
0.6667	2.46966
0.68021	2.48726
0.69371	2.50233
0.70664	2.52024
0.72029	2.53689
0.73393	2.54914
0.74629	2.56422
0.75986	2.57804
0.77344	2.59469
0.78716	2.606
0.79951	2.62013
0.81388	2.63647
0.82724	2.64809
0.84096	2.66254
0.85295	2.67259
0.86761	2.68516
0.88025	2.70023
0.89354	2.7106
0.90725	2.72191
0.92033	2.73322
0.93311	2.7439
0.94626	2.7574
0.96026	2.76746
0.97291	2.77625
0.98655	2.7907
0.9997	2.80013
1.01198	2.80641
1.02721	2.8174
1.03669	2.82117
1.05616	2.83625
1.06715	2.83751
