Adsorption isotherm of Water on UiO-66-(OCH2CH3)2
DOI: 10.1021/acs.inorgchem.5b00435
Article source: Figure 6- UiO 66 OCH2CH3 2
Adsorbate Water: InChIKey XLYOFNOQVPJJNP-UHFFFAOYSA-N
Kind: experiment
Temperature: 273 K
Tabular data in the source: 0
pressure (bar)	uptake (cm3(STP)/g)
3.4e-05	9.18
0.000125	19.53
0.000171	21.7
0.000235	24.28
0.000291	26.37
0.000345	28.21
0.000405	30.04
0.00047	32.29
0.000525	33.63
0.000585	36.3
0.000637	37.64
0.0007	38.8
0.000757	40.81
0.00081	42.98
0.000869	44.73
0.000925	46.31
0.000986	47.65
0.001051	50.15
0.001106	52.24
0.001163	54.91
0.001221	56.75
0.001278	59.58
0.001338	62.75
0.001397	65.92
0.001454	68.85
0.00152	71.02
0.001573	73.44
0.001637	76.11
0.001684	77.86
0.001744	80.19
0.001844	83.2
0.001932	86.7
0.002002	88.29
0.002033	89.29
0.002106	91.88
0.002182	93.13
0.00222	94.38
0.002292	96.05
0.002336	97.39
0.002413	99.3
0.002463	100.89
0.002509	101.56
0.002572	103.14
0.002643	104.31
0.002691	105.56
0.002769	108.32
0.002826	110.15
0.00287	110.49
0.002932	110.99
0.002981	112.32
0.003027	113.41
0.003093	115.41
0.003143	116.75
0.003229	118.33
0.003294	119.58
0.003346	120.83
0.003382	121.59
0.003469	123.92
0.003524	124.42
0.003575	125.42
0.003618	126.59
0.003666	127.34
0.003756	130.35
0.003818	131.1
0.003867	131.77
0.003919	132.93
0.003957	133.02
0.004029	136.44
0.004075	137.27
0.004158	140.78
0.004216	142.28
0.004258	142.61
0.004326	145.7
0.004366	146.54
0.004442	150.63
0.004481	151.29
0.004558	155.63
0.004603	156.97
0.004668	160.72
0.004738	164.06
0.004776	165.56
0.004836	169.99
0.004897	173.91
0.004949	178.66
0.005002	182.34
0.005073	188.51
0.005122	193.52
0.00519	200.03
0.00525	207.45
0.005304	214.55
0.005356	222.14
0.005405	228.48
0.005469	237.16
0.005535	246.93
0.005583	253.6
0.005641	261.61
0.005686	273.96
0.00021	47.82
0.000253	50.57
0.000319	54.58
0.000385	56.66
0.000452	59.25
0.000514	60.92
0.000578	63.25
0.000641	65.09
0.0007	66.68
0.000766	68.93
0.000833	71.02
0.0009	73.52
0.000957	75.35
0.001018	77.86
0.001082	80.53
0.00115	83.95
0.001217	86.87
0.001274	89.62
0.001337	92.04
0.001409	95.72
0.001478	98.89
0.001536	100.39
0.001588	103.39
0.001668	106.65
0.001722	108.32
0.001791	112.24
0.001856	115.99
0.001915	120
0.001977	122.67
0.002051	125.59
0.00211	128.43
0.00217	130.01
0.002224	131.18
0.002313	133.69
0.002422	135.94
0.002484	137.44
0.002567	139.53
0.002596	140.19
0.002676	143.28
0.002748	144.78
0.00282	147.87
0.002885	148.96
0.002955	151.38
0.003016	153.46
0.003073	156.55
0.003128	159.3
0.003204	163.39
0.003277	166.65
0.00332	168.73
0.003404	174.91
0.003462	179.17
0.003522	183.42
0.003592	189.85
0.00365	193.77
0.003718	199.61
0.003783	204.62
0.003849	209.21
0.003896	213.05
0.003968	216.88
0.004027	220.31
0.004081	222.81
0.004148	226.06
0.004217	228.73
0.004295	231.91
0.004321	233.07
0.004412	237.16
0.004432	237.41
0.00454	241.5
0.004619	244.42
0.00469	246.59
0.004726	248.09
0.004765	249.35
0.004862	252.93
0.004939	255.1
0.004979	256.02
0.005024	258.36
0.00513	262.28
0.005158	263.45
0.005263	267.87
0.005292	268.96
0.005378	272.46
0.005448	275.88
0.005487	277.05
0.00552	279.55
0.005555	280.47
0.005579	281.39
0.005602	282.39
0.005619	283.06
0.005661	283.39
0.005677	283.81
0.005759	284.48
