Adsorption isotherm of Carbon Dioxide on UiO-66-NH2
DOI: 10.1021/acs.inorgchem.5b00435
Article source: Figure 4- UiO 66 NH2
Adsorbate Carbon Dioxide: InChIKey CURLTUGMZLYLDI-UHFFFAOYSA-N
Kind: experiment
Temperature: 298 K
Tabular data in the source: 0
pressure (bar)	uptake (mmol/g)
0.0145	0.15848
0.0281	0.20813
0.04156	0.25686
0.05434	0.30674
0.06795	0.35208
0.0814	0.39537
0.09404	0.43754
0.10742	0.47721
0.12057	0.51756
0.13463	0.55473
0.14719	0.59123
0.16117	0.62772
0.17417	0.65923
0.18793	0.6921
0.20123	0.72587
0.21484	0.75534
0.2277	0.7864
0.24108	0.81518
0.25439	0.84465
0.26747	0.87253
0.281	0.89927
0.29438	0.92715
0.30761	0.9505
0.32069	0.97543
0.33385	0.99968
0.34686	1.02439
0.36129	1.04932
0.37377	1.07334
0.3876	1.09465
0.40053	1.11958
0.41392	1.14043
0.42722	1.16219
0.4409	1.18281
0.45406	1.20389
0.46767	1.22519
0.48112	1.24559
0.49338	1.26486
0.50714	1.28503
0.52052	1.30384
0.53383	1.32491
0.54781	1.3435
0.56089	1.36004
0.5739	1.37636
0.58773	1.3963
0.60074	1.41125
0.61315	1.42893
0.62735	1.44661
0.64066	1.46224
0.65329	1.47675
0.6666	1.49442
0.6805	1.51096
0.69358	1.52479
0.70644	1.53929
0.72072	1.55492
0.73321	1.56693
0.74659	1.58325
0.76019	1.59866
0.77365	1.61021
0.78651	1.62109
0.79989	1.63672
0.81335	1.64986
0.82665	1.66369
0.84019	1.67796
0.85319	1.69156
0.86725	1.69903
0.87996	1.71308
0.89297	1.72305
0.90665	1.7346
0.92078	1.74638
0.93393	1.7568
0.94724	1.76836
0.9601	1.77787
0.97318	1.79079
0.98686	1.79803
0.99935	1.80959
1.01378	1.8191
1.02678	1.82567
1.0448	1.83563
1.05721	1.83902
1.06813	1.8406
0.08156	0.27203
0.09314	0.30943
0.10914	0.33822
0.12192	0.37947
0.13575	0.42073
0.14712	0.45519
0.16035	0.49055
0.1747	0.52478
0.18801	0.55492
0.20072	0.58643
0.21432	0.61862
0.22882	0.64945
0.24138	0.6771
0.25342	0.70294
0.26687	0.73172
0.28063	0.76074
0.29431	0.78476
0.30747	0.8131
0.32077	0.83984
0.33326	0.86296
0.34709	0.88903
0.36077	0.91328
0.3737	0.93685
0.38686	0.95997
0.40061	0.98581
0.4137	1.00666
0.42775	1.03045
0.44076	1.05131
0.45399	1.07805
0.46722	1.09663
0.48113	1.11862
0.49413	1.14128
0.50737	1.15896
0.52157	1.18072
0.53458	1.20043
0.54781	1.22061
0.56097	1.24259
0.5733	1.26072
0.58758	1.2793
0.59947	1.30015
0.61375	1.31828
0.62608	1.33664
0.64096	1.35749
0.65434	1.37403
0.66757	1.39216
0.6811	1.40916
0.69321	1.42344
0.70742	1.44225
0.72095	1.46037
0.73388	1.47646
0.74771	1.49505
0.76065	1.51091
0.77403	1.52609
0.78704	1.54105
0.80102	1.55736
0.8129	1.57549
0.82703	1.58977
0.84034	1.60563
0.85379	1.62059
0.86695	1.63577
0.88026	1.65231
0.89312	1.66999
0.90747	1.68585
0.92078	1.69582
0.93266	1.70919
0.94679	1.72256
0.9592	1.73729
0.97348	1.75383
0.98694	1.76606
1.00084	1.77966
1.01363	1.79371
1.02604	1.80163
1.04002	1.81704
1.05467	1.82701
