Adsorption isotherm of Carbon Dioxide on UiO-66-NH2
DOI: 10.1021/acs.inorgchem.5b00435
Article source: Figure 4a- UiO 66 NH2
Adsorbate Carbon Dioxide: InChIKey CURLTUGMZLYLDI-UHFFFAOYSA-N
Kind: experiment
Temperature: 273 K
Tabular data in the source: 0
pressure (bar)	uptake (mmol/g)
0.02641	0.24565
0.0392	0.30502
0.05277	0.39109
0.06591	0.46836
0.07969	0.54595
0.09297	0.61223
0.10604	0.67349
0.12012	0.7382
0.13261	0.79286
0.14611	0.85034
0.15997	0.90563
0.17369	0.9562
0.18712	1.00678
0.20055	1.05672
0.21318	1.10039
0.22618	1.14719
0.24076	1.19117
0.25362	1.23483
0.26697	1.27818
0.27983	1.31776
0.29261	1.35483
0.30626	1.39661
0.31983	1.43744
0.33326	1.4742
0.34626	1.5166
0.36005	1.55461
0.37384	1.58948
0.38712	1.6322
0.40012	1.66362
0.41348	1.6966
0.42806	1.73335
0.44041	1.76508
0.45334	1.79963
0.46742	1.82665
0.48027	1.859
0.4932	1.88095
0.50656	1.91083
0.61328	2.15428
0.62636	2.18133
0.64065	2.19449
0.65308	2.21711
0.66651	2.24035
0.6803	2.27491
0.69401	2.29909
0.70737	2.32077
0.7198	2.34684
0.73258	2.3726
0.74601	2.39742
0.75973	2.41658
0.77273	2.44391
0.7871	2.46558
0.79995	2.4904
0.81317	2.51647
0.82717	2.54066
0.84039	2.56956
0.85318	2.58087
0.86653	2.60631
0.87968	2.62736
0.89239	2.64683
0.90711	2.67259
0.91925	2.68358
0.9329	2.70526
0.0124	0.35891
0.02705	0.42848
0.03918	0.48313
0.3117	1.64445
0.32247	1.68577
0.33338	1.72424
0.34631	1.75565
0.3596	1.78895
0.37224	1.81942
0.38524	1.85398
0.39982	1.88288
0.41411	1.919
0.42747	1.93973
0.44176	1.96706
0.45612	1.99847
0.46819	2.02329
0.48119	2.05941
0.49491	2.08172
0.50776	2.10685
0.52084	2.13229
0.53542	2.15962
0.5482	2.18538
0.55991	2.20517
0.57434	2.23156
0.58634	2.25983
0.60006	2.27679
0.61284	2.306
0.62642	2.32816
0.63956	2.35564
0.87996	2.70903
0.89332	2.7285
0.90761	2.74919
0.92033	2.75112
0.93383	2.76557
0.94626	2.77814
0.96105	2.8017
0.97362	2.80986
0.98648	2.82274
0.99984	2.83311
1.01377	2.85321
1.02634	2.86515
1.04574	2.87866
1.05658	2.88745
1.06793	2.88965
