Adsorption isotherm of Nitrogen on UiO-66-(COOH)2
DOI: 10.1021/acs.inorgchem.5b00435
Article source: Figure 4c- UiO 66 COOH 2
Adsorbate Nitrogen: InChIKey IJGRMHOSHXDMSA-UHFFFAOYSA-N
Kind: experiment
Temperature: 273 K
Tabular data in the source: 0
pressure (bar)	uptake (mmol/g)
0.29601	0.086481
0.30825	0.090362
0.31755	0.093391
0.33514	0.097334
0.34932	0.101057
0.3635	0.104812
0.37482	0.108346
0.38745	0.111564
0.40178	0.114435
0.41317	0.118473
0.42487	0.12125
0.44153	0.125036
0.46703	0.131567
0.48067	0.135353
0.49376	0.139013
0.50678	0.142041
0.51933	0.146301
0.53359	0.149898
0.54545	0.153905
0.55986	0.156839
0.57257	0.16012
0.58551	0.163401
0.59861	0.166745
0.61232	0.169396
0.62565	0.172803
0.6396	0.1764
0.65231	0.17905
0.6668	0.182331
0.67935	0.186023
0.69291	0.188988
0.70725	0.191828
0.71864	0.195992
0.73111	0.198548
0.74599	0.201072
0.75885	0.205173
0.7728	0.208013
0.78574	0.211136
0.80039	0.214986
0.81178	0.217541
0.82604	0.220349
0.83905	0.223662
0.85246	0.226059
0.86587	0.229214
0.87935	0.232149
0.89283	0.235524
0.90601	0.237607
0.91887	0.240509
0.93142	0.243538
0.94591	0.246251
0.9594	0.24887
0.97226	0.252751
0.9852	0.254454
1.00046	0.257609
1.0124	0.260985
1.02511	0.264834
1.03255	0.26496
1.03836	0.268115
1.04998	0.268304
1.05153	0.269819
1.06579	0.27187
