Adsorption isotherm of Carbon Dioxide on UiO-66
DOI: 10.1021/acs.inorgchem.5b00435
Article source: Figure 4- UiO 66
Adsorbate Carbon Dioxide: InChIKey CURLTUGMZLYLDI-UHFFFAOYSA-N
Kind: experiment
Temperature: 298 K
Tabular data in the source: 0
pressure (bar)	uptake (mmol/g)
0.10742	0.31826
0.12087	0.34591
0.1347	0.37243
0.14702	0.39782
0.16062	0.42592
0.17385	0.44632
0.18775	0.46808
0.2009	0.49279
0.2145	0.5141
0.22757	0.53631
0.2408	0.56124
0.25418	0.58074
0.26793	0.6025
0.28138	0.62312
0.29438	0.64262
0.30775	0.66302
0.32038	0.68069
0.33398	0.69928
0.34766	0.71787
0.36104	0.73623
0.37434	0.75527
0.38764	0.77068
0.40079	0.7879
0.41379	0.80445
0.42777	0.8219
0.44085	0.83799
0.45378	0.85273
0.4667	0.87041
0.48031	0.88355
0.49383	0.89851
0.50743	0.91574
0.52111	0.93183
0.53389	0.94407
0.54749	0.95789
0.56094	0.97217
0.5735	0.98305
0.58695	0.99869
0.6001	1.01251
0.61408	1.02702
0.62693	1.03948
0.64031	1.05172
0.65361	1.06351
0.66691	1.07756
0.67977	1.08844
0.69337	1.0975
0.70638	1.11201
0.7205	1.12289
0.73388	1.13535
0.74763	1.14578
0.76034	1.15598
0.77326	1.16663
0.78702	1.17864
0.80039	1.1911
0.81317	1.19972
0.82715	1.20969
0.83978	1.21966
0.85338	1.22986
0.86631	1.23915
0.87954	1.24935
0.89277	1.25819
0.90682	1.26884
0.91885	1.27654
0.93328	1.28629
0.94569	1.29286
0.95981	1.30351
0.97289	1.31189
0.98694	1.32164
0.99912	1.3273
1.01325	1.33727
1.03201	1.34566
1.04315	1.35223
1.05473	1.35857
1.06699	1.36311
0.12021	0.30216
0.13456	0.32573
0.14711	0.34885
0.16063	0.36744
0.17423	0.38806
0.18851	0.4105
0.20061	0.43566
0.21302	0.4572
0.22684	0.47896
0.24156	0.50412
0.25411	0.52099
0.26771	0.54129
0.45438	0.82144
0.46664	0.83961
0.48001	0.84728
0.49302	0.86519
0.50662	0.87878
0.5197	0.89261
0.53419	0.9189
0.54719	0.9393
0.5596	0.95857
0.57492	0.97149
0.58695	0.98826
0.60033	1.00617
0.6137	1.02181
0.62761	1.03359
0.64068	1.04538
0.65369	1.05897
0.66677	1.07371
0.67947	1.08141
0.69345	1.09773
0.70653	1.10657
0.72005	1.11926
0.73388	1.13173
0.74756	1.14192
0.76034	1.15167
0.77334	1.16549
0.78642	1.17388
0.8001	1.17546
0.81437	1.18475
0.8267	1.19903
0.83993	1.20742
0.85443	1.2149
0.86662	1.2192
0.88186	1.23529
0.89367	1.24844
0.90742	1.26158
0.92155	1.2677
0.93343	1.27722
0.94756	1.28175
0.96101	1.29036
0.97207	1.2958
0.9868	1.30282
1.00017	1.3103
1.01266	1.32095
1.02723	1.33727
1.04218	1.34339
1.05324	1.35132
