Adsorption isotherm of Nitrogen on UiO-66-(COOH)4
DOI: 10.1021/acs.inorgchem.5b00435
Article source: Figure 4c- UiO 66 COOH 4
Adsorbate Nitrogen: InChIKey IJGRMHOSHXDMSA-UHFFFAOYSA-N
Kind: experiment
Temperature: 273 K
Tabular data in the source: 0
pressure (bar)	uptake (mmol/g)
0.02084	0.003975
0.04014	0.007446
0.05393	0.009717
0.06618	0.012525
0.08113	0.015806
0.09415	0.018993
0.10686	0.021738
0.12088	0.02423
0.13429	0.026407
0.14653	0.028584
0.16017	0.031139
0.17435	0.033158
0.18768	0.035366
0.20062	0.037322
0.21441	0.039972
0.22759	0.042118
0.23874	0.044421
0.25285	0.045967
0.26478	0.047828
0.2816	0.050573
0.29461	0.052592
0.30833	0.053885
0.32096	0.056156
0.3346	0.058144
0.34824	0.061047
0.36087	0.063066
0.37365	0.065179
0.38838	0.067545
0.40209	0.068902
0.41364	0.070511
0.42627	0.07234
0.43998	0.074833
0.453	0.075968
0.46649	0.078158
0.48005	0.081016
0.61387	0.099313
0.62611	0.101021
0.64076	0.102594
0.65393	0.104676
0.66664	0.106727
0.68059	0.10821
0.69399	0.110513
0.7067	0.111995
0.71957	0.113383
0.73305	0.115402
0.7456	0.117011
0.77342	0.120671
0.78481	0.122658
0.80263	0.124393
0.81356	0.126255
0.82921	0.127863
0.84037	0.129188
0.95924	0.142595
0.97094	0.143913
1.01031	0.149031
1.02743	0.150608
1.0375	0.151933
1.05316	0.153005
0.07253	0.003753
0.08237	0.004131
0.09531	0.009747
0.10523	0.011009
0.12236	0.01429
0.14305	0.018581
0.20318	0.030254
0.21635	0.03262
0.2279	0.034734
0.2382	0.036375
0.25726	0.039182
0.26842	0.0424
0.27857	0.043978
0.29973	0.048048
0.31065	0.049878
0.3198	0.051865
0.33646	0.055115
0.34769	0.057355
0.35986	0.059942
0.37606	0.062371
0.38636	0.064706
0.4024	0.06745
0.41341	0.068775
0.42642	0.071078
0.44293	0.073886
0.45448	0.075527
0.46656	0.077609
0.4802	0.080038
0.49345	0.082089
0.50647	0.083824
0.52119	0.086316
0.53429	0.088209
0.54707	0.090039
0.56002	0.092184
0.57365	0.093887
0.58621	0.096001
0.59977	0.097799
0.61403	0.099818
0.62673	0.102027
0.63983	0.103762
0.65362	0.105749
0.66711	0.106979
0.68012	0.108999
0.69384	0.111302
0.70663	0.112847
0.71941	0.114866
0.73344	0.116065
0.74824	0.117516
0.76226	0.119251
0.77319	0.120418
0.78892	0.122248
0.79954	0.12332
0.81658	0.124645
0.82611	0.126223
0.83921	0.127831
0.85339	0.130198
0.86594	0.131333
0.88005	0.133384
0.89229	0.135245
0.90601	0.136854
0.92034	0.138684
0.93305	0.140576
0.94661	0.141996
0.95955	0.143605
0.97311	0.145403
0.98636	0.14698
0.99961	0.148463
1.0131	0.15004
1.0241	0.150955
1.04502	0.153384
1.05633	0.155119
1.06742	0.155624
