Adsorption isotherm of Nitrogen on UiO-66
DOI: 10.1021/acs.inorgchem.5b00435
Article source: Figure 3a- UiO 66
Adsorbate Nitrogen: InChIKey IJGRMHOSHXDMSA-UHFFFAOYSA-N
Kind: experiment
Temperature: 77 K
Tabular data in the source: 0
pressure (bar)	uptake (cm3(STP)/g)
0.004691	156.76
0.005208	156.84
0.456074	219.83
0.466662	221.27
0.475711	221.95
0.486076	222.38
0.495854	223.41
0.50623	223.48
0.515714	224.21
0.527336	224.65
0.537337	225.82
0.547935	225.81
0.557936	225.96
0.568008	226.54
0.579407	227.86
0.587644	228.37
0.598243	230.27
0.608832	231.3
0.618386	231.96
0.627881	232.1
0.639128	232.39
0.649351	232.75
0.659058	233.12
0.66987	233.85
0.678695	234.43
0.689	234.57
0.69893	235.01
0.710542	236.18
0.7204	237.13
0.729814	237.86
0.739743	239.03
0.750707	240.72
0.758651	240.72
0.768581	241.81
0.778652	243.06
0.79071	244.38
0.806162	243.93
0.819101	245.54
0.830429	248.62
0.844483	249.57
0.857351	250.01
0.870878	251.25
0.892217	253.81
0.904275	256.74
0.916333	256.74
0.973561	280.88
0.983795	289.02
0.994312	298.35
0.008886	167.71
0.019991	175.49
0.031401	179.74
0.041989	184.88
0.052365	186.49
0.062001	189.35
0.074129	190.59
0.083988	191.62
0.093624	192.42
0.104142	191.98
0.114507	193.29
0.12392	194.32
0.134002	195.49
0.145624	197.79
0.157165	198.71
0.263962	207.34
0.274479	208.12
0.284774	208.21
0.292353	209.02
0.301108	209.9
0.310733	210.11
0.322355	211.36
0.329124	212.24
0.340888	211.72
0.352216	212.45
0.363179	213.32
0.373332	213.83
0.383333	214.49
0.393556	215
0.405249	215.22
0.414217	214.85
0.424076	215.87
0.434005	216.68
0.444523	217.63
0.453277	218.58
0.464454	221.88
0.47563	223.49
0.486147	225.17
0.495418	225.24
0.50395	226.12
0.513434	227
0.523364	227.88
0.534398	228.68
0.545868	229.27
0.555585	229.85
0.566174	231.02
0.576326	231.68
0.585223	232.33
0.594788	233.65
0.606552	234.02
0.616998	235.33
0.627881	235.48
0.636777	235.91
0.647659	236.2
0.657376	237.16
0.666789	237.52
0.678118	239.06
0.689517	239.79
0.700693	240.88
0.709072	241.54
0.71959	241.91
0.727321	242.56
0.737687	243.95
0.749086	245.79
0.759826	247.47
0.769097	249.16
0.780344	249.89
0.791379	252.31
0.80293	253.33
0.809769	256.04
0.818888	259.13
0.830733	261.69
0.842355	263.74
0.851839	267.63
0.86258	271.89
0.873168	275.63
0.882075	280.03
0.892146	284.43
0.902451	288.54
0.912381	292.06
0.92224	297.05
0.933558	300.06
0.943488	304.39
0.953418	306.88
0.96504	310.77
0.97961	315.39
0.988354	313.03
0.994606	312.66
1.00446	309.06
