Adsorption isotherm of Nitrogen on UiO-66-(OCH2CH3)2
DOI: 10.1021/acs.inorgchem.5b00435
Article source: Figure 3a- UiO 66 OCH2CH3 2
Adsorbate Nitrogen: InChIKey IJGRMHOSHXDMSA-UHFFFAOYSA-N
Kind: experiment
Temperature: 77 K
Tabular data in the source: 0
pressure (bar)	uptake (cm3(STP)/g)
0.00303	44.71
0.003101	44.72
0.003405	68.2
0.003405	68.21
0.008268	75.85
0.020701	87.37
0.030185	90.45
0.040783	94.93
0.050044	97.79
0.058505	98.89
0.070786	99.84
0.08109	101.15
0.091162	102.99
0.101315	104.23
0.111539	106.8
0.121975	107.31
0.132493	109.36
0.141916	109.87
0.152058	110.38
0.162728	111.55
0.172871	112.28
0.183175	114.04
0.192001	114.4
0.20421	115.65
0.213036	117.19
0.221496	117.55
0.23245	118.28
0.243484	120.85
0.253556	121.58
0.264002	123.04
0.274226	122.75
0.284521	123.62
0.292981	124.21
0.303722	125.75
0.313206	126.26
0.324534	126.25
0.334099	127.5
0.34263	129.18
0.354252	129.77
0.365206	129.32
0.37624	129.9
0.383961	130.78
0.392857	131.51
0.405067	131.66
0.415878	133.64
0.424856	133.56
0.435667	135.46
0.445526	137.3
0.455446	137.22
0.465669	137.8
0.475599	138.24
0.486198	139.19
0.496199	139.33
0.506635	140.58
0.516129	141.53
0.526647	142.55
0.536131	143.28
0.546213	144.31
0.556143	144.97
0.56739	146.58
0.577836	146.87
0.586297	148.04
0.596146	149.06
0.607038	150.53
0.618437	151.11
0.62704	151.7
0.638591	153.38
0.648956	153.89
0.658227	156.31
0.669768	157.48
0.679404	158.58
0.688899	159.68
0.698676	161.8
0.709853	163.41
0.71883	164.95
0.730006	166.12
0.740817	167.22
0.750747	169.49
0.763403	171.4
0.77466	175.07
0.782006	176.24
0.793557	176.89
0.801359	179.02
0.811583	181.66
0.81974	183.49
0.830774	187.9
0.839164	189.36
0.84961	190.68
0.860422	193.91
0.872631	196.62
0.881234	199.11
0.892704	202.41
0.900577	204.83
0.914337	209.53
0.924266	213.05
0.935665	216.27
0.953022	220.75
0.961412	228.01
0.983623	245.41
0.993269	255.24
0.008785	82.09
0.020042	88.77
0.030043	93.54
0.040408	96.1
0.050125	99.04
0.059093	101.02
0.070786	102.92
0.080128	104.02
0.090281	106.14
0.100504	107.39
0.109036	108.27
0.118966	109.88
0.129554	110.83
0.140366	112.07
0.150741	113.54
0.160813	114.2
0.170743	114.85
0.179568	115.95
0.189569	116.31
0.199722	118
0.210016	118
0.219875	119.46
0.23091	120.78
0.241863	121.58
0.251134	122.24
0.26003	122.53
0.270842	123.92
0.280924	125.17
0.291512	125.82
0.30203	126.41
0.313277	126.92
0.322102	127.35
0.332478	128.38
0.342185	128.96
0.35175	130.5
0.362409	130.79
0.373372	131.37
0.383667	132.47
0.393303	133.42
0.405219	134.15
0.416172	136.94
0.424856	139.43
0.435302	142.59
0.446853	146.62
0.455304	150.22
0.468182	160.71
0.477008	167.98
0.486502	170.1
0.49555	172.6
0.504447	172.59
0.515481	173.62
0.525846	174.79
0.535259	176.47
0.546223	177.42
0.556588	178.23
0.566083	179.84
0.574614	180.43
0.585648	180.49
0.595791	181.37
0.605427	182.4
0.616238	183.49
0.626026	184.15
0.637567	185.98
0.645663	187.08
0.656393	187.15
0.666252	187.73
0.67832	189.49
0.686771	189.64
0.698393	191.1
0.708839	191.17
0.717513	193.15
0.727372	193.73
0.736491	195.05
0.747454	196.22
0.758195	198.05
0.768195	200.11
0.778561	201.72
0.788866	203.62
0.799748	205.16
0.809901	206.33
0.81902	209.12
0.829679	211.32
0.848952	218.66
0.861749	222.54
0.870797	223.79
0.879623	227.9
0.889775	232.3
0.89934	237.14
0.910081	241.03
0.920527	244.84
0.929201	248.51
0.940681	253.06
0.951421	256.29
0.960176	260.98
0.998345	263.98
