Adsorption isotherm of Carbon Dioxide on UiO-66
DOI: 10.1021/acs.inorgchem.5b00435
Article source: Figure 4a- UiO 66
Adsorbate Carbon Dioxide: InChIKey CURLTUGMZLYLDI-UHFFFAOYSA-N
Kind: experiment
Temperature: 273 K
Tabular data in the source: 0
pressure (bar)	uptake (mmol/g)
0.06642	0.36187
0.07999	0.41308
0.09385	0.46302
0.10663	0.51046
0.12013	0.55538
0.1332	0.5981
0.14735	0.64082
0.15977	0.67914
0.17342	0.71998
0.18642	0.75673
0.20006	0.79443
0.21357	0.82961
0.22714	0.85976
0.24007	0.89369
0.25321	0.92667
0.26678	0.95997
0.27978	0.98981
0.29357	1.01997
0.30636	1.05107
0.31979	1.07745
0.33394	1.10918
0.34737	1.13745
0.36065	1.16415
0.37401	1.19023
0.38766	1.21818
0.40095	1.24394
0.41445	1.2675
0.42738	1.29483
0.44066	1.31745
0.45402	1.34321
0.4676	1.36739
0.48096	1.39158
0.4931	1.41608
0.50674	1.43619
0.52075	1.461
0.53389	1.48079
0.54689	1.50404
0.56047	1.52571
0.57304	1.54676
0.58654	1.56781
0.60019	1.58822
0.61383	1.60739
0.62712	1.62592
0.63962	1.64571
0.65283	1.66393
0.66691	1.68592
0.68027	1.70288
0.6932	1.72267
0.70728	1.74152
0.72042	1.7588
0.73407	1.77921
0.74714	1.79398
0.76021	1.81188
0.77372	1.83073
0.78715	1.84738
0.80015	1.86654
0.81415	1.88036
0.82809	1.8989
0.84008	1.91178
0.85344	1.93282
0.8668	1.93973
0.88031	1.96235
0.89338	1.97837
0.90681	1.99251
0.92082	2.00633
0.93274	2.01983
0.94747	2.03617
0.96068	2.04968
0.97368	2.06664
0.98676	2.07763
1.00091	2.09114
1.01427	2.10716
1.02734	2.11753
1.04522	2.13638
1.05686	2.14172
1.06821	2.1436
0.07978	0.3603
0.09385	0.39768
0.10779	0.43695
0.12107	0.47842
0.13472	0.52742
0.14721	0.567
0.15978	0.60469
0.174	0.64522
0.18657	0.68103
0.20043	0.71275
0.21422	0.75045
0.22686	0.78029
0.23957	0.81516
0.25314	0.85003
0.26557	0.87798
0.28094	0.91097
0.29293	0.94144
0.30651	0.97159
0.31893	0.99421
0.33265	1.02908
0.34701	1.05766
0.36052	1.08719
0.3728	1.11138
0.38695	1.14468
0.40016	1.16698
0.41273	1.19588
0.42638	1.21536
0.44031	1.24394
0.45367	1.2697
0.46667	1.29263
0.47981	1.31462
0.49325	1.33818
0.50689	1.36457
0.52061	1.39064
0.53476	1.41263
0.5474	1.43336
0.55947	1.45158
0.57347	1.4764
0.58733	1.49744
0.60041	1.5232
0.61384	1.53671
0.62741	1.56215
0.64113	1.58446
0.65334	1.60173
0.66649	1.62466
0.67905	1.64383
0.69277	1.65953
0.70728	1.68875
0.71985	1.70634
0.73386	1.72204
0.74729	1.74654
0.75928	1.76288
0.77372	1.78424
0.78622	1.80466
0.80116	1.82445
0.81337	1.83544
0.82709	1.85649
0.83951	1.87062
0.85424	1.89356
0.8658	1.90895
0.87923	1.92497
0.89309	1.94853
0.90531	1.95764
0.91931	1.97334
0.93217	1.99094
0.94531	2.00696
0.96133	2.02235
0.97325	2.04088
0.98683	2.05125
1.0004	2.07481
1.01348	2.09365
1.02662	2.10371
1.04077	2.12695
