Adsorption isotherm of Water on UiO-66-(F)4
DOI: 10.1021/acs.inorgchem.5b00435
Article source: Figure 6- UiO 66 F4
Adsorbate Water: InChIKey XLYOFNOQVPJJNP-UHFFFAOYSA-N
Kind: experiment
Temperature: 273 K
Tabular data in the source: 0
pressure (bar)	uptake (cm3(STP)/g)
0.000196	105.4
0.000255	113.24
0.000319	119.42
0.000383	124.59
0.000446	128.76
0.00051	133.52
0.00058	139.86
0.000637	146.2
0.000701	153.8
0.00077	162.23
0.000832	171.91
0.0009	183.92
0.000966	195.35
0.00101	205.29
0.001062	220.22
0.00109	229.99
0.00111	238
0.001152	248.6
0.001208	254.85
0.001268	259.28
0.00134	263.78
0.001398	267.29
0.001457	269.29
0.001521	272.88
0.001599	276.38
0.001664	278.39
0.001732	282.39
0.001796	284.73
0.001831	285.98
0.001919	288.98
0.001991	291.82
0.002033	292.74
0.002081	293.07
0.002165	297.75
0.002213	298.41
0.002262	299.5
0.002362	303.59
0.002405	303.5
0.002456	305.42
0.002527	308.09
0.002628	310.93
0.00269	312.6
0.002733	313.27
0.002788	314.85
0.002841	316.61
0.002893	317.86
0.002955	320.11
0.003029	322.36
0.003142	324.95
0.00321	327.37
0.003274	328.46
0.00333	330.79
0.003388	331.88
0.003448	333.46
0.0035	336.97
0.003559	338.22
0.003612	340.22
0.003668	341.81
0.003738	344.9
0.003808	347.57
0.003911	351.74
0.003965	353.91
0.004023	356.66
0.004081	359.17
0.004144	361.84
0.004235	367.18
0.004285	368.68
0.004335	372.35
0.0044	376.61
0.00445	379.19
0.004545	385.03
0.004587	386.95
0.004652	390.96
0.004708	394.97
0.004806	401.81
0.00486	405.81
0.004942	411.74
0.004993	415.49
0.005043	418.5
0.005123	424.34
0.005154	426.09
0.005199	429.01
0.005243	430.43
0.005279	433.02
0.005316	435.69
0.00535	437.11
0.005369	439.86
0.005402	441.36
0.005433	442.78
0.00547	444.37
0.00551	445.37
0.005545	447.45
0.005592	449.79
0.005616	449.37
0.00567	451.88
0.005764	452.96
5.6e-05	20.03
0.000143	26.79
0.001165	105.56
0.00123	117.52
0.001278	126.18
0.001331	156.3
0.001376	169.74
0.001404	181.5
0.001435	192.52
0.001478	200.28
0.001527	210.96
0.001767	233.82
0.001825	237.81
0.001878	239.08
0.001925	240.33
0.002002	243
0.005023	350.65
0.005125	365.8
0.005193	369.26
0.005254	375.19
0.005294	380.78
0.005369	389.79
0.005409	394.21
0.005501	406.48
0.005552	414.58
0.005604	422.25
