Adsorption isotherm of Nitrogen on UiO-66-(COOH)2
DOI: 10.1021/acs.inorgchem.5b00435
Article source: Figure 4d- UiO 66 COOH 2
Adsorbate Nitrogen: InChIKey IJGRMHOSHXDMSA-UHFFFAOYSA-N
Kind: experiment
Temperature: 298 K
Tabular data in the source: 0
pressure (bar)	uptake (mmol/g)
0.23905	0.049261
0.25392	0.051233
0.26551	0.053734
0.27874	0.055953
0.2913	0.058101
0.30677	0.061289
0.31866	0.063579
0.33159	0.066414
0.34684	0.069109
0.35977	0.071257
0.3724	0.073564
0.38593	0.076118
0.40141	0.078371
0.41239	0.080661
0.4248	0.082845
0.43975	0.085328
0.45298	0.087476
0.46606	0.089871
0.48027	0.091667
0.49342	0.094132
0.50583	0.096545
0.51844	0.098739
0.53229	0.100691
0.54642	0.102488
0.5597	0.105239
0.57401	0.107369
0.58686	0.110105
0.59957	0.111777
0.61362	0.113943
0.6273	0.116497
0.64098	0.118557
0.65302	0.120758
0.66385	0.122466
0.67828	0.124385
0.69189	0.126516
0.70557	0.128893
0.72156	0.130883
0.73435	0.13289
0.7481	0.134633
0.75819	0.136377
0.7718	0.138842
0.78794	0.140338
0.799	0.142187
0.81298	0.144177
0.82629	0.146431
0.83959	0.148667
0.85327	0.150445
0.86598	0.152382
0.87981	0.154213
0.89528	0.15578
0.93169	0.160657
0.94724	0.163669
0.9586	0.164707
0.97175	0.16682
0.98715	0.168809
0.99874	0.170376
1.01362	0.172648
1.02782	0.174549
1.0403	0.175993
1.05555	0.17837
0.51174	0.091522
0.52833	0.093917
0.5456	0.097369
0.5622	0.100715
0.57834	0.103532
0.59471	0.106015
0.61108	0.108692
0.62738	0.111703
0.64278	0.114838
0.65952	0.117444
0.67664	0.120033
0.69256	0.122991
0.70437	0.124893
0.71902	0.127482
0.73053	0.129278
0.74586	0.131867
0.75931	0.134544
0.77067	0.136322
0.786	0.138541
0.7999	0.141059
0.81276	0.143014
0.82651	0.145197
0.8396	0.147434
0.8535	0.149441
0.86658	0.15129
0.87974	0.153526
0.89304	0.156256
0.90582	0.157788
0.91935	0.159337
0.93236	0.161362
0.94641	0.163598
0.95942	0.165306
0.97295	0.167313
0.98618	0.169285
1.00001	0.171293
1.01324	0.173177
1.0338	0.175747
1.05024	0.178018
1.06729	0.180272
