Adsorption isotherm of Water on UiO-66
DOI: 10.1021/acs.inorgchem.5b00435
Article source: Figure 6- UiO 66
Adsorbate Water: InChIKey XLYOFNOQVPJJNP-UHFFFAOYSA-N
Kind: experiment
Temperature: 273 K
Tabular data in the source: 0
pressure (bar)	uptake (cm3(STP)/g)
0.000228	3.84
0.000282	5.59
0.000356	7.93
0.000411	10.76
0.000456	11.68
0.00051	13.52
0.000565	15.77
0.000643	18.19
0.00069	19.86
0.000746	21.61
0.000818	24.03
0.000875	25.87
0.00093	26.79
0.000993	28.37
0.001054	31.21
0.00111	33.46
0.001167	35.13
0.001231	43.39
0.001284	48.48
0.001345	55.08
0.001612	93.38
0.001802	139.36
0.001861	152.04
0.001915	165.23
0.002048	183.25
0.002098	188.09
0.00217	197.19
0.002213	203.62
0.002288	212.38
0.002334	219.3
0.002393	226.98
0.002449	231.4
0.002517	236.66
0.002576	242.09
0.00263	243.5
0.002706	249.51
0.002748	251.02
0.002828	252.77
0.002912	256.77
0.002969	259.94
0.003033	261.45
0.003108	262.78
0.003172	264.53
0.003291	267.12
0.003351	268.29
0.003491	272.13
0.003588	274.3
0.003653	276.55
0.003706	277.97
0.003756	279.81
0.003845	281.22
0.003912	283.89
0.003972	285.15
0.004015	285.56
0.004118	286.82
0.004174	289.57
0.004229	291.82
0.004287	293.07
0.004339	292.82
0.004411	295.99
0.004478	296.5
0.004544	298.83
0.004593	300.67
0.004649	302.17
0.004752	305.59
0.004817	307.09
0.004871	308.93
0.004927	311.27
0.004984	314.19
0.005053	318.61
0.005105	321.86
0.00517	325.03
0.005245	329.46
0.005294	335.05
0.005379	340.39
0.005589	347.15
0.005645	355.58
0.005701	364.84
0.001216	131.02
0.001281	143.28
0.001348	153.13
0.00136	154.13
0.001415	165.98
0.001431	170.24
0.001474	179.67
0.001488	181.42
0.001541	194.27
0.001552	195.69
0.001603	206.04
0.001664	213.3
0.001734	218.22
0.001803	224.23
0.001869	230.4
0.001978	238.92
0.002043	242.17
0.002112	249.51
0.002173	252.43
0.002225	254.77
0.002283	256.69
0.002372	262.11
0.002441	263.2
0.002473	263.03
0.002562	267.79
0.002627	270.63
0.002654	271.71
0.002741	274.55
0.00282	276.72
0.002861	277.64
0.002949	281.14
0.002996	282.31
0.003074	284.98
0.003115	285.56
0.00319	288.4
0.003243	288.82
0.003296	289.4
0.003394	294.16
0.003448	294.49
0.003528	297.58
0.003568	298.33
0.003625	300.33
0.003679	300.5
0.003774	304.34
0.003823	305.51
0.003875	305.67
0.003944	306.93
0.004041	309.35
0.004079	309.51
0.004143	309.76
0.004194	312.6
0.004251	313.35
0.004322	315.27
0.004425	319.11
0.004489	319.86
0.004535	321.28
0.004718	328.04
0.004779	328.87
0.004869	331.21
0.004917	331.13
0.004969	332.71
0.005025	334.71
0.005083	337.22
0.00519	342.81
0.005263	345.65
0.005314	346.98
0.005366	350.24
0.005437	355.49
0.005506	359.67
0.005695	373.18
0.005759	373.6
