Adsorption isotherm of Nitrogen on UiO-66-(OCH2CH3)2
DOI: 10.1021/acs.inorgchem.5b00435
Article source: Figure 4d- UiO 66 OCH2CH3 2
Adsorbate Nitrogen: InChIKey IJGRMHOSHXDMSA-UHFFFAOYSA-N
Kind: experiment
Temperature: 298 K
Tabular data in the source: 0
pressure (bar)	uptake (mmol/g)
0.03267	0.003802
0.04687	0.005299
0.05524	0.005897
0.06571	0.007111
0.07998	0.008238
0.09314	0.009399
0.10682	0.010508
0.12028	0.011405
0.13328	0.012337
0.14719	0.013657
0.16064	0.014572
0.1729	0.015416
0.18628	0.016278
0.20004	0.017404
0.2126	0.018337
0.22643	0.019181
0.24003	0.02006
0.25304	0.021063
0.26657	0.02189
0.28032	0.022434
0.29243	0.023455
0.30634	0.024352
0.31934	0.025373
0.33265	0.026005
0.34723	0.026955
0.36038	0.028011
0.37362	0.029014
0.3867	0.029805
0.4009	0.030438
0.41413	0.031212
0.42654	0.031897
0.43932	0.032724
0.45099	0.032881
0.46713	0.033901
0.48096	0.034552
0.49397	0.035202
0.50742	0.03617
0.52051	0.036926
0.53493	0.037558
0.54637	0.038667
0.5602	0.039459
0.57515	0.040126
0.58801	0.040706
0.60034	0.041903
0.61395	0.042712
0.62636	0.043186
0.63892	0.043696
0.65402	0.044505
0.66919	0.045613
0.68384	0.04584
0.69536	0.045909
0.70866	0.046824
0.72159	0.047492
0.73438	0.048178
0.74604	0.048124
0.76024	0.048897
0.77445	0.049477
0.78715	0.050462
0.80098	0.051183
0.81504	0.051657
0.82722	0.052343
0.84038	0.052729
0.87985	0.054592
0.89353	0.054961
0.93345	0.056277
0.96126	0.057543
0.97434	0.058792
0.9869	0.059126
1.01351	0.059686
1.02517	0.060425
1.03735	0.061199
1.0532	0.061655
0.07991	0.000254
0.09972	0.002402
0.11535	0.003651
0.13075	0.004601
0.14562	0.006115
0.16132	0.007311
0.1759	0.008631
0.19144	0.009704
0.20617	0.010989
0.22164	0.012273
0.23577	0.013117
0.25057	0.014367
0.2662	0.015528
0.28219	0.016548
0.29707	0.017286
0.31187	0.018712
0.32705	0.019909
0.34237	0.020664
0.35732	0.021879
0.3722	0.022793
0.38812	0.023813
0.40247	0.02501
0.41802	0.026206
0.43327	0.027262
0.44845	0.028405
0.46287	0.029338
0.47842	0.030463
0.49352	0.03166
0.50885	0.032927
0.52387	0.033982
0.53935	0.034862
0.55512	0.035424
0.5697	0.036426
0.58584	0.037411
0.60012	0.038625
0.61544	0.039469
0.63114	0.040437
0.64647	0.041316
0.66217	0.041684
0.67682	0.043339
0.69229	0.04413
0.70709	0.044745
0.72249	0.045607
0.73856	0.046204
0.75284	0.047312
0.76861	0.047751
0.78439	0.048683
0.79994	0.050073
0.81264	0.050354
0.82595	0.051497
0.83851	0.052271
0.85309	0.053098
0.86609	0.053255
0.8797	0.053976
0.89293	0.054749
0.90728	0.055153
0.92096	0.055556
0.93277	0.056401
0.94638	0.05684
0.95849	0.057772
0.97254	0.058405
0.9857	0.058615
0.99953	0.059441
1.01284	0.060444
1.02136	0.061219
1.03676	0.061604
1.05223	0.061849
1.06741	0.0619
