Adsorption isotherm of Nitrogen on UiO-66-(OCH2CH3)2
DOI: 10.1021/acs.inorgchem.5b00435
Article source: Figure 4c- UiO 66 OCH2CH3 2
Adsorbate Nitrogen: InChIKey IJGRMHOSHXDMSA-UHFFFAOYSA-N
Kind: experiment
Temperature: 273 K
Tabular data in the source: 0
pressure (bar)	uptake (mmol/g)
0.02797	0.002587
0.04037	0.004259
0.05424	0.006593
0.06695	0.008328
0.08051	0.010253
0.09291	0.012177
0.10655	0.014165
0.12088	0.015836
0.13375	0.017887
0.14707	0.019685
0.16033	0.021452
0.17396	0.023502
0.18729	0.02508
0.20046	0.026973
0.2141	0.028329
0.2272	0.030032
0.24084	0.031547
0.25355	0.032998
0.2668	0.03448
0.28036	0.036499
0.29368	0.037887
0.30725	0.039528
0.32026	0.041358
0.33367	0.042714
0.34692	0.04467
0.35932	0.045995
0.37365	0.047951
0.38706	0.049212
0.40046	0.050727
0.41341	0.052493
0.42782	0.054039
0.44053	0.055395
0.4544	0.056846
0.46587	0.058329
0.4802	0.060569
0.49399	0.061421
0.50717	0.063029
0.52026	0.064828
0.53367	0.066531
0.54707	0.067667
0.55994	0.068992
0.57373	0.070632
0.58721	0.072051
0.60015	0.073566
0.61364	0.074764
0.62704	0.076815
0.64076	0.077919
0.65378	0.079244
0.66695	0.080916
0.68067	0.082651
0.69399	0.084102
0.70709	0.085584
0.72057	0.086752
0.73351	0.087824
0.74746	0.089843
0.76025	0.091199
0.77334	0.092461
0.78675	0.094165
0.80039	0.095647
0.8141	0.096846
0.82681	0.098234
0.84045	0.09959
0.85355	0.100757
0.86672	0.102177
0.88067	0.103975
0.8943	0.104795
0.90593	0.10571
0.92003	0.107003
0.93274	0.107539
0.94684	0.10959
0.9594	0.11022
0.97241	0.111829
0.98613	0.112712
0.99806	0.113911
1.01255	0.11511
1.02348	0.115393
1.03673	0.116876
1.05192	0.117854
1.06687	0.119241
0.0327	0.0053
0.04921	0.00713
0.06703	0.009496
0.08043	0.010884
0.09508	0.012934
0.10849	0.0153
0.12088	0.016562
0.13328	0.018802
0.18667	0.025679
0.21643	0.029686
0.22797	0.030948
0.24029	0.032998
0.2544	0.034197
0.26788	0.035774
0.28098	0.036878
0.33382	0.042872
0.347	0.044796
0.35878	0.045616
0.37296	0.046815
0.40046	0.050001
0.41286	0.051389
0.42627	0.052051
0.4375	0.053944
0.45223	0.055332
0.46649	0.056941
0.48012	0.058423
0.49252	0.059906
0.50577	0.060915
0.51902	0.062524
0.53297	0.063786
0.54522	0.065395
0.56048	0.067161
0.57296	0.068202
0.58628	0.069559
0.60039	0.070757
0.61372	0.071924
0.62774	0.073786
0.64099	0.075742
0.65386	0.076972
0.6668	0.078581
0.67927	0.080884
0.6926	0.082019
0.70539	0.082745
0.71957	0.084574
0.73258	0.0853
0.74614	0.087066
0.75924	0.088454
0.77226	0.089274
0.78714	0.091451
0.80008	0.092334
0.81356	0.093785
0.82542	0.095426
0.84084	0.097445
0.85324	0.098896
0.86656	0.100536
0.87919	0.103281
0.89314	0.103344
0.90484	0.104669
0.91926	0.105867
0.93227	0.106498
0.94645	0.107444
0.95971	0.108422
0.97311	0.110031
0.9869	0.110787
0.99768	0.112964
1.01364	0.114636
