Adsorption isotherm of Carbon Dioxide on UiO-66-(OCH2CH3)2
DOI: 10.1021/acs.inorgchem.5b00435
Article source: Figure 4a- UiO 66 OCH2CH3 2
Adsorbate Carbon Dioxide: InChIKey CURLTUGMZLYLDI-UHFFFAOYSA-N
Kind: experiment
Temperature: 273 K
Tabular data in the source: 0
pressure (bar)	uptake (mmol/g)
0.02327	0.08921
0.03002	0.10555
0.04086	0.13036
0.0535	0.15612
0.06672	0.18596
0.08051	0.20889
0.09257	0.24415
0.105	0.26223
0.11865	0.28209
0.38749	0.6716
0.40135	0.69124
0.41421	0.69705
0.42778	0.71055
0.441	0.71904
0.45408	0.71872
0.46729	0.72532
0.48044	0.736
0.49473	0.73568
0.50745	0.74856
0.52109	0.74762
0.53417	0.75673
0.54681	0.75736
0.55916	0.76019
0.57317	0.76678
0.58725	0.77275
0.60241	0.78029
0.61333	0.78406
0.62611	0.79129
0.63897	0.80134
0.6519	0.81233
0.66655	0.82804
0.68056	0.83809
0.6932	0.84751
0.70634	0.85505
0.72021	0.86102
0.73314	0.8695
0.74671	0.8783
0.75986	0.89086
0.773	0.89715
0.78687	0.90751
0.80037	0.91442
0.81323	0.92133
0.82731	0.92793
0.84024	0.93955
0.8523	0.94364
0.86617	0.95683
0.87981	0.96688
0.8931	0.96908
0.9051	0.97222
0.91997	0.97882
0.93383	0.99233
0.94669	1.00238
0.9607	1.00992
0.97334	1.01306
0.98706	1.02342
1.00013	1.03285
1.01349	1.03913
1.02649	1.0429
1.041	1.04824
1.05357	1.0539
0.01113	0.09549
0.18644	0.4602
0.20009	0.47456
0.21302	0.49538
0.22681	0.51297
0.2401	0.52773
0.25396	0.54815
0.26667	0.55883
0.27946	0.57108
0.29311	0.58616
0.30683	0.60281
0.32019	0.61569
0.3334	0.62511
0.34619	0.63831
0.36012	0.65495
0.37341	0.66406
0.38648	0.67946
0.40027	0.69014
0.4132	0.69925
0.42678	0.71244
0.43971	0.72312
0.45264	0.73034
0.46628	0.74479
0.48008	0.75673
0.49315	0.76678
0.50651	0.77401
0.51944	0.78532
0.53222	0.79317
0.54594	0.80259
0.55981	0.8117
0.5736	0.82144
0.58681	0.82992
0.59946	0.83652
0.61325	0.84626
0.62668	0.85725
0.63968	0.86385
0.65347	0.87264
0.66633	0.87987
0.68027	0.88741
0.69312	0.89715
0.70605	0.90311
0.72028	0.91254
0.73292	0.92196
0.74621	0.92667
0.75993	0.93547
0.77343	0.94112
0.78614	0.94426
0.79986	0.95369
0.8133	0.95903
0.82644	0.97128
0.83987	0.97442
0.85338	0.98102
0.86638	0.98667
0.87996	0.99233
0.89339	0.99798
0.90632	1.00709
0.91961	1.01117
0.93347	1.01683
0.94676	1.02028
0.96026	1.02877
0.97362	1.03348
0.98677	1.03819
1.00027	1.04133
1.01213	1.04793
1.02204	1.04636
1.03741	1.0539
1.0525	1.06112
1.06758	1.06332
