Adsorption isotherm of Nitrogen on IRMOF-1
DOI: 10.1016/j.talanta.2015.02.032
Article source: Figure S3
Adsorbate Nitrogen: InChIKey IJGRMHOSHXDMSA-UHFFFAOYSA-N
Kind: experiment
Temperature: 77 K
Tabular data in the source: 0
pressure (bar)	uptake (cm3(STP)/g)
0.050245	161.905
0.073529	164.626
0.10049	166.667
0.123775	168.027
0.14951	168.707
0.172794	170.068
0.186275	170.748
0.198529	170.748
0.248775	172.789
0.300245	172.789
0.39951	174.15
0.498775	175.51
0.60049	176.871
0.800245	178.912
0.900735	179.592
0.95098	180.272
