Adsorption isotherm of Nitrogen on MIL-53
DOI: 10.1016/j.talanta.2015.02.032
Article source: Figure S3
Adsorbate Nitrogen: InChIKey IJGRMHOSHXDMSA-UHFFFAOYSA-N
Kind: experiment
Temperature: 77 K
Tabular data in the source: 0
pressure (bar)	uptake (cm3(STP)/g)
0.04902	276.19
0.072304	279.592
0.098039	282.993
0.123775	284.354
0.14951	286.395
0.17402	287.075
0.186275	289.116
0.199755	289.796
0.248775	291.156
0.297794	293.878
0.398284	295.238
0.498775	297.279
0.60049	298.639
0.70098	300
0.800245	300.68
0.89951	302.721
0.95098	303.401
