Adsorption isotherm of Nitrogen on CuBTC
DOI: 10.1016/j.talanta.2015.02.032
Article source: Figure S3
Adsorbate Nitrogen: InChIKey IJGRMHOSHXDMSA-UHFFFAOYSA-N
Kind: experiment
Temperature: 77 K
Tabular data in the source: 0
pressure (bar)	uptake (cm3(STP)/g)
0.047794	400
0.074755	407.483
0.099265	411.565
0.123775	414.286
0.148284	417.007
0.172794	419.048
0.186275	419.728
0.198529	421.088
0.248775	423.81
0.29902	426.531
0.398284	429.932
0.5	432.653
0.599265	434.694
0.70098	436.054
0.800245	438.095
0.900735	438.776
0.95098	440.136
