Adsorption isotherm of Hydrogen on CPM-42
DOI: 10.1021/acs.cgd.5b00358
Article source: Figure 4
Adsorbate Hydrogen: InChIKey UFHFLCQGNIYNRP-UHFFFAOYSA-N
Kind: experiment
Temperature: 77 K
Tabular data in the source: 0
pressure (bar)	uptake (cm3(STP)/g)
0.003083	2.31214
0.006165	2.91837
0.010789	3.88764
0.013872	5.59072
0.015413	6.93007
0.020037	7.89934
0.027743	10.0839
0.033909	11.9047
0.040074	14.7011
0.041615	13.7234
0.055487	17.2409
0.066276	20.7627
0.069358	19.6609
0.080148	22.3291
0.095561	24.7469
0.107891	26.3154
0.11868	28.0079
0.132552	30.6718
0.134093	29.816
0.161836	32.5828
0.191122	35.2256
0.200369	37.0422
0.217323	37.2628
0.243525	38.9342
0.266645	41.3415
0.269727	40.4836
0.334462	44.4191
0.337544	43.8052
0.402279	47.009
0.40382	46.5191
0.468555	48.6254
0.534831	50.3637
0.536372	50.7275
0.602648	52.2219
0.670465	53.4703
0.738282	54.7187
0.786062	55.6288
0.803017	55.6055
0.852338	56.5135
0.872375	56.6079
0.920155	57.518
0.940192	57.4905
1.0188	58.4802
