Adsorption isotherm of Methane on UiO-66(Zr)-(COOH)2 (423K)
DOI: 10.1039/c4ta03992k
Article source: Figure S12a
Adsorbate Methane: InChIKey VNWKTOKETHGBQD-UHFFFAOYSA-N
Kind: experiment
Temperature: 303 K
Tabular data in the source: 0
pressure (bar)	uptake (mmol/g)
0.065217	-0.003486
1.82609	0.474074
3.71739	0.742484
5.47826	0.920261
7.43478	1.06318
8.73913	1.14336
12.4565	1.23747
16.3043	1.29325
20.087	1.3037
23.8043	1.31068
27.6522	1.32462
