Adsorption isotherm of Nitrogen on UiO-66(Zr)-(COOH) (323K)
DOI: 10.1039/c4ta03992k
Article source: Figure S11a
Adsorbate Nitrogen: InChIKey IJGRMHOSHXDMSA-UHFFFAOYSA-N
Kind: experiment
Temperature: 77 K
Tabular data in the source: 0
pressure (bar)	uptake (cm3(STP)/g)
0.018374	169.697
0.030843	176.768
0.040818	182.828
0.048305	184.848
0.062027	189.899
0.074507	191.919
0.088229	196.97
0.10196	197.98
0.115689	200
0.131916	201.01
0.146893	203.03
0.163117	206.061
0.184338	207.071
0.206808	208.081
0.220537	210.101
0.234267	211.111
0.257983	213.131
0.274215	212.121
0.300424	216.162
0.315405	216.162
0.335378	217.172
0.346612	218.182
0.36284	219.192
0.377819	220.202
0.392798	221.212
0.407779	221.212
0.437736	224.242
0.455214	224.242
0.475185	226.263
0.486421	226.263
0.500151	227.273
0.522623	227.273
0.538849	229.293
0.55383	229.293
0.562565	231.313
0.568809	230.303
0.583786	232.323
0.603761	232.323
0.614995	233.333
0.629974	234.343
0.644953	235.354
0.663676	237.374
0.676156	239.394
0.694881	240.404
0.711108	241.414
0.728582	243.434
0.743561	244.444
0.758536	247.475
0.771019	248.485
0.779756	249.495
0.789741	250.505
0.795977	253.535
0.797229	251.515
0.80347	252.525
0.805962	254.545
0.810958	253.535
0.812202	255.556
0.818442	256.566
0.819693	255.556
0.82468	258.586
0.825935	255.556
0.830921	259.596
0.832175	256.566
0.834668	258.586
0.839662	258.586
0.840904	261.616
0.84715	259.596
0.848386	265.657
0.855885	261.616
0.862113	268.687
0.867094	274.747
0.867113	265.657
0.875848	267.677
0.877075	277.778
0.884555	282.828
0.890789	286.869
0.892065	273.737
0.898269	291.919
0.900797	276.768
0.904501	296.97
0.909528	280.808
0.910732	302.02
0.913265	284.848
0.918206	310.101
0.920693	315.152
0.921991	290.909
0.925672	322.222
0.928156	328.283
0.928225	294.949
0.931964	297.98
0.933135	335.354
0.935617	342.424
0.938194	304.04
0.940592	351.515
0.941933	307.071
0.944323	358.586
0.944421	311.111
0.948051	366.667
0.94816	314.141
0.950537	371.717
0.950645	320.202
0.953003	386.869
0.953129	326.263
0.955477	397.98
0.956855	335.354
0.957948	410.101
0.960428	418.182
0.960586	342.424
0.961649	431.313
0.964117	445.455
0.964316	349.495
0.966591	456.566
0.968043	358.586
0.970267	489.899
0.970313	467.677
0.970523	366.667
0.971538	478.788
0.972995	378.788
0.97423	384.848
0.975222	508.081
0.975235	502.02
0.976706	394.949
0.978913	534.343
0.978936	523.232
0.980426	407.071
0.981389	544.444
0.982888	424.242
0.982909	414.141
0.983871	551.515
0.984098	442.424
0.985366	433.333
0.986555	461.616
0.986576	451.515
0.987766	479.798
0.990246	487.879
0.991345	559.596
0.992722	497.98
0.993857	552.525
0.993867	547.475
0.993892	535.354
0.99508	564.646
