Adsorption isotherm of Methane on UiO-66(Zr)-(COOH)2 (423K)
DOI: 10.1039/c4ta03992k
Article source: Figure 11
Adsorbate Methane: InChIKey VNWKTOKETHGBQD-UHFFFAOYSA-N
Kind: experiment
Temperature: 303 K
Tabular data in the source: 0
pressure (bar)	uptake (mmol/g)
0.275735	0.088583
0.597426	0.20374
0.827206	0.310039
1.24081	0.380906
1.88419	0.540354
2.75735	0.699803
3.5386	0.814961
4.6875	0.965551
7.07721	1.18701
9.19118	1.36417
12.6838	1.56791
15.2114	1.70079
17.6471	1.89567
17.7849	1.83366
19.8529	1.95768
20.3585	1.93996
22.4265	2.02854
