Adsorption isotherm of Carbon Dioxide on UiO-66(Zr)-(COOH)2 (348K)
DOI: 10.1039/c4ta03992k
Article source: Figure S12b
Adsorbate Carbon Dioxide: InChIKey CURLTUGMZLYLDI-UHFFFAOYSA-N
Kind: experiment
Temperature: 303 K
Tabular data in the source: 0
pressure (bar)	uptake (mmol/g)
0.063425	-0.010893
1.7759	1.40523
3.48837	1.98257
5.45455	2.39651
7.35729	2.69063
8.68922	2.87582
12.4313	3.16993
16.3002	3.3878
20.1057	3.5512
23.9112	3.69281
27.7167	3.83442
