Adsorption isotherm of Carbon Dioxide on UiO-66(Zr)-(COOH)2 (423K)
DOI: 10.1039/c4ta03992k
Article source: Figure 11
Adsorbate Carbon Dioxide: InChIKey CURLTUGMZLYLDI-UHFFFAOYSA-N
Kind: experiment
Temperature: 303 K
Tabular data in the source: 0
pressure (bar)	uptake (mmol/g)
0.04604	0.26521
0.184162	0.45966
0.230203	0.636461
0.368324	0.786707
0.598527	1.07837
0.828729	1.30815
1.05893	1.48489
1.51934	1.76764
2.20994	2.06798
2.62431	2.25349
3.49908	2.50957
6.76796	3.09191
9.39227	3.40041
13.628	3.76139
16.1602	3.92847
18.9687	4.11313
21.547	4.26252
