Adsorption isotherm of Nitrogen on UiO-66(Zr)-(COOH)2 (423K)
DOI: 10.1039/c4ta03992k
Article source: Figure S11b
Adsorbate Nitrogen: InChIKey IJGRMHOSHXDMSA-UHFFFAOYSA-N
Kind: experiment
Temperature: 77 K
Tabular data in the source: 0
pressure (bar)	uptake (cm3(STP)/g)
0.014272	104.258
0.025701	111.217
0.033315	114.311
0.039657	115.861
0.052339	118.187
0.062483	119.739
0.073893	120.52
0.086572	122.075
0.117002	125.959
0.142356	127.523
0.162637	128.311
0.184191	130.644
0.207012	132.978
0.226028	134.537
0.241245	136.866
0.256456	137.65
0.2742	137.663
0.303356	139.23
0.324912	142.336
0.345194	143.124
0.371812	143.916
0.389564	146.247
0.404778	147.803
0.419989	148.587
0.432666	149.369
0.442805	149.377
0.45422	151.702
0.45675	150.16
0.471964	151.716
0.473231	151.717
0.492245	152.504
0.497317	153.28
0.508724	153.289
0.516336	155.611
0.52774	154.848
0.534087	157.941
0.556896	156.415
0.558176	160.277
0.574652	160.289
0.589857	158.757
0.594941	163.394
0.613948	161.864
0.613952	163.408
0.635504	164.97
0.639311	166.517
0.65453	169.617
0.662125	166.534
0.673551	172.721
0.683678	168.868
0.683698	175.045
0.698892	170.424
0.701452	178.148
0.710331	180.471
0.720475	182.024
0.725521	174.305
0.729352	183.575
0.733159	185.122
0.742007	177.407
0.745844	188.221
0.757231	182.052
0.762345	195.955
0.776299	199.827
0.780057	185.931
0.786455	205.241
0.797816	190.577
0.797877	209.883
0.806766	215.295
0.810502	194.448
0.81566	222.251
0.820654	198.317
0.827096	231.527
0.83334	202.188
0.834725	239.255
0.839687	205.282
0.839814	245.436
0.847456	257.025
0.84874	262.431
0.849844	210.695
0.852572	271.701
0.858733	216.107
0.860211	282.518
0.86277	290.242
0.866352	220.746
0.867867	298.74
0.869159	306.463
0.871735	319.592
0.875557	325.773
0.876511	226.932
0.883174	329.64
0.886673	233.889
0.890791	333.506
0.894299	240.845
0.898395	333.512
0.900654	246.255
0.908275	251.667
0.910822	255.53
0.918449	262.485
0.918684	336.617
0.922489	337.392
0.926085	272.53
0.934996	284.892
0.937698	337.404
0.940091	292.618
0.945187	301.116
0.94657	337.41
0.951546	308.071
0.954179	338.961
0.956641	315.797
0.964319	338.969
0.965527	320.437
0.971879	325.075
0.973196	340.52
0.980766	329.715
0.98207	341.299
0.985877	342.846
0.987123	335.897
0.990959	346.711
0.993477	341.308
0.994761	346.714
0.994771	349.803
0.996041	350.576
0.999848	352.123
