Adsorption isotherm of Nitrogen on UiO-66(Zr)-(COOH)2 (463K)
DOI: 10.1039/c4ta03992k
Article source: Figure S11b
Adsorbate Nitrogen: InChIKey IJGRMHOSHXDMSA-UHFFFAOYSA-N
Kind: experiment
Temperature: 77 K
Tabular data in the source: 0
pressure (bar)	uptake (cm3(STP)/g)
0.011642	74.1403
0.016719	76.4608
0.025596	78.012
0.030675	81.1048
0.03575	82.6531
0.045899	85.7497
0.057308	86.5307
0.066185	88.082
0.076327	88.862
0.091541	90.4182
0.100418	91.9694
0.11183	93.5226
0.124507	94.3046
0.132116	95.8549
0.139721	95.8608
0.151132	97.414
0.15874	98.1921
0.170149	98.9731
0.181558	99.7541
0.198035	99.7668
0.208179	101.319
0.214519	102.096
0.224658	102.104
0.234798	102.112
0.262688	104.45
0.281705	106.009
0.294384	107.563
0.309591	106.803
0.329874	108.363
0.332417	110.681
0.341289	110.688
0.353963	110.698
0.359033	110.702
0.367907	111.481
0.379314	111.49
0.385651	111.495
0.39706	112.276
0.408472	113.829
0.416077	113.835
0.424951	114.614
0.424954	115.386
0.432556	114.62
0.438895	115.397
0.45031	117.722
0.454109	116.953
0.469319	116.965
0.475661	118.514
0.480728	117.746
0.4858	118.522
0.501014	120.078
0.502279	119.307
0.511154	120.086
0.513691	120.86
0.518761	120.864
0.53017	121.645
0.533977	123.192
0.537775	121.651
0.545379	121.657
0.551729	125.523
0.555523	123.209
0.5682	123.991
0.568208	126.307
0.577075	124.77
0.585956	127.866
0.591019	125.553
0.602431	127.106
0.603708	130.196
0.615107	127.888
0.620192	132.525
0.626517	128.669
0.632871	134.079
0.640461	129.452
0.646818	135.635
0.650605	131.004
0.662019	133.33
0.667109	139.511
0.669626	134.108
0.682306	135.662
0.683593	141.841
0.694985	137.216
0.700079	144.942
0.706394	137.997
0.714028	147.27
0.717808	140.323
0.722903	148.049
0.73049	142.649
0.740664	153.468
0.743169	144.203
0.749511	145.753
0.75208	156.565
0.764725	147.309
0.767302	160.438
0.776184	163.534
0.778674	149.636
0.786335	167.403
0.787554	151.96
0.79268	169.724
0.800238	155.058
0.802844	177.454
0.809117	157.382
0.809195	182.092
0.816822	189.048
0.817997	159.705
0.821904	192.913
0.828151	164.346
0.830808	202.958
0.831958	165.893
0.837167	209.913
0.83957	168.216
0.844647	170.536
0.844801	219.185
0.849726	173.629
0.849898	227.683
0.853722	234.636
0.856071	175.951
0.858821	243.906
0.862418	179.044
0.86391	250.088
0.865207	259.355
0.86623	182.136
0.870037	183.683
0.870301	267.081
0.871309	185.229
0.874121	272.49
0.875119	187.548
0.877661	189.867
0.879205	277.127
0.881468	191.414
0.88301	277.902
0.88655	195.279
0.888082	278.678
0.89036	197.599
0.8929	199.145
0.895444	202.236
0.896959	280.229
0.900526	206.101
0.904338	209.193
0.905831	280.236
0.906883	212.283
0.913235	216.921
0.913247	220.782
0.914703	280.243
0.917059	223.874
0.919604	226.965
0.923418	230.829
0.925961	233.147
0.92611	280.252
0.929778	237.784
0.931052	240.101
0.934872	245.51
0.938689	250.146
0.939961	251.691
0.940056	281.807
0.945048	257.1
0.947592	260.191
0.951405	263.283
0.952677	264.828
0.956538	283.364
0.957756	267.921
0.959029	269.466
0.962838	271.786
0.965412	284.143
0.966648	274.106
0.969188	275.652
0.974265	277.972
0.975552	284.151
0.979339	279.521
0.981901	288.017
0.984414	281.069
0.988221	282.616
0.989494	284.162
0.989511	289.567
0.993306	287.254
0.995845	288.8
0.997118	290.345
0.997127	293.434
0.999665	294.208
0.999667	294.98
1.00094	295.754
