Adsorption isotherm of Nitrogen on UiO-66(Zr)-(COOH)2 (303K)
DOI: 10.1039/c4ta03992k
Article source: Figure S11b
Adsorbate Nitrogen: InChIKey IJGRMHOSHXDMSA-UHFFFAOYSA-N
Kind: experiment
Temperature: 77 K
Tabular data in the source: 0
pressure (bar)	uptake (cm3(STP)/g)
0.009215	108.115
0.015559	110.437
0.020641	114.302
0.028255	117.396
0.03207	121.26
0.040949	123.584
0.053628	125.138
0.065035	125.147
0.077717	127.473
0.095468	129.803
0.103078	131.354
0.111952	132.133
0.127164	132.917
0.133503	133.694
0.14872	136.022
0.167731	136.037
0.179143	137.59
0.19182	138.372
0.200694	139.151
0.208301	139.929
0.222243	139.94
0.229853	141.49
0.234922	141.494
0.246332	142.275
0.259008	143.057
0.271683	143.067
0.289432	144.625
0.299574	145.405
0.31732	146.191
0.328732	147.744
0.335069	147.749
0.343941	147.756
0.36422	147.772
0.378169	150.099
0.392113	150.882
0.40479	151.664
0.413664	152.443
0.426341	153.225
0.440283	153.236
0.449157	154.015
0.463104	155.57
0.475781	156.352
0.490995	157.908
0.503674	159.462
0.506206	158.692
0.513811	158.698
0.520153	160.247
0.539169	161.806
0.544244	163.355
0.555651	163.363
0.564528	164.915
0.569592	163.374
0.578469	164.925
0.583539	164.929
0.596218	166.484
0.608897	168.038
0.61016	166.494
0.619032	166.501
0.622844	169.593
0.629176	168.053
0.636788	170.376
0.645658	169.611
0.65327	171.933
0.662139	171.168
0.663419	175.03
0.673561	175.81
0.683695	174.273
0.68624	177.364
0.69385	178.914
0.696372	175.055
0.706531	181.241
0.711591	178.156
0.71921	182.795
0.729362	186.664
0.73061	180.487
0.743292	182.813
0.743318	191.308
0.749658	192.085
0.756005	195.178
0.759773	184.37
0.767417	196.732
0.772457	187.469
0.776299	199.827
0.782604	189.794
0.782646	202.921
0.791527	206.017
0.795337	208.336
0.796555	192.893
0.805491	212.977
0.809244	197.536
0.81311	217.616
0.816856	199.859
0.822007	225.345
0.827003	202.183
0.828361	230.755
0.830813	204.503
0.834713	235.394
0.838537	242.346
0.839692	206.826
0.846152	245.441
0.849976	252.394
0.851116	212.24
0.851265	259.345
0.855077	262.436
0.858897	267.845
0.86254	217.654
0.862721	274.797
0.864023	285.609
0.865271	279.433
0.869122	294.88
0.871427	222.295
0.871669	298.743
0.875491	304.923
0.876775	310.33
0.877779	226.933
0.879323	314.193
0.880624	325.004
0.886976	329.642
0.887938	233.118
0.890791	333.506
0.895567	240.846
0.89588	339.688
0.900959	342.781
0.903499	344.327
0.904466	249.347
0.908571	345.103
0.912087	254.758
0.914911	345.88
0.917174	260.168
0.920991	264.804
0.92125	346.657
0.922278	270.982
0.931177	279.484
0.933925	346.667
0.936266	285.665
0.943903	295.71
0.945339	348.993
0.947727	302.662
0.950409	348.996
0.951549	308.843
0.955368	314.251
0.956746	349.001
0.960455	319.661
0.96435	349.007
0.96554	324.298
0.968155	349.782
0.971899	331.252
0.973225	349.786
0.976988	337.434
0.978295	349.79
0.9808	340.526
0.983347	344.389
0.987169	350.569
0.989692	346.71
0.990971	350.572
0.992241	351.345
0.997311	351.349
