Adsorption isotherm of Carbon Dioxide on UiO-66(Zr)-(COOH)2 (303K)
DOI: 10.1039/c4ta03992k
Article source: Figure S12b
Adsorbate Carbon Dioxide: InChIKey CURLTUGMZLYLDI-UHFFFAOYSA-N
Kind: experiment
Temperature: 303 K
Tabular data in the source: 0
pressure (bar)	uptake (mmol/g)
0.063425	-0.010893
1.71247	1.15468
3.5518	1.69935
5.39112	2.1024
7.23044	2.38562
8.62579	2.57081
12.5581	2.84314
16.2368	3.02832
20.0423	3.15904
23.9746	3.2244
27.7801	3.28976
