Adsorption isotherm of Nitrogen on UiO-66(Zr)-(COOH) (423K)
DOI: 10.1039/c4ta03992k
Article source: Figure S11a
Adsorbate Nitrogen: InChIKey IJGRMHOSHXDMSA-UHFFFAOYSA-N
Kind: experiment
Temperature: 77 K
Tabular data in the source: 0
pressure (bar)	uptake (cm3(STP)/g)
0.009695	140.404
0.018428	143.434
0.025913	146.465
0.029652	149.495
0.038386	151.515
0.045873	153.535
0.060848	156.566
0.075823	159.596
0.089549	162.626
0.099535	163.636
0.113265	164.646
0.130739	166.667
0.143224	166.667
0.148215	167.677
0.155706	167.677
0.163195	168.687
0.176923	170.707
0.185662	170.707
0.191904	170.707
0.205635	171.717
0.219364	173.737
0.22436	172.727
0.239339	173.737
0.255566	174.747
0.273043	175.758
0.28178	176.768
0.290519	176.768
0.307995	177.778
0.322972	179.798
0.331711	179.798
0.34669	180.808
0.360423	180.808
0.375404	180.808
0.390381	182.828
0.407859	182.828
0.426584	183.838
0.4503	185.859
0.48026	186.869
0.493991	187.879
0.513964	188.889
0.535185	189.899
0.555158	190.909
0.573883	191.919
0.586363	193.939
0.606338	193.939
0.61882	194.949
0.630054	195.96
0.638793	195.96
0.650029	195.96
0.66376	196.97
0.673747	196.97
0.683731	198.99
0.689973	198.99
0.698712	198.99
0.709944	201.01
0.714935	202.02
0.726169	203.03
0.741146	205.051
0.753633	204.04
0.758622	206.061
0.769856	207.071
0.771101	209.091
0.789825	210.101
0.79357	210.101
0.794815	212.121
0.801059	211.111
0.804798	214.141
0.812284	216.162
0.812291	213.131
0.822266	219.192
0.822276	214.141
0.832259	216.162
0.834746	221.212
0.843481	223.232
0.843491	218.182
0.853474	220.202
0.854712	225.253
0.859714	221.212
0.860948	228.283
0.867203	222.222
0.870923	234.343
0.877161	236.364
0.878431	226.263
0.883395	240.404
0.887163	229.293
0.892126	244.444
0.89465	231.313
0.898361	247.475
0.902134	234.343
0.903343	253.535
0.910823	258.586
0.910865	238.384
0.915804	264.646
0.919539	269.697
0.92209	243.434
0.923274	274.747
0.924514	278.788
0.927078	246.465
0.92824	287.879
0.931968	295.96
0.932061	251.515
0.936943	305.051
0.940781	260.606
0.941908	319.192
0.94192	313.131
0.944386	328.283
0.947011	266.667
0.948112	337.374
0.949495	272.727
0.951843	344.444
0.953219	282.828
0.954325	351.515
0.956803	360.606
0.959285	367.677
0.959447	289.899
0.960521	373.737
0.962976	393.939
0.962999	382.828
0.963169	301.01
0.967927	414.141
0.967944	406.061
0.97063	315.152
0.971649	425.253
0.974104	445.455
0.974127	434.343
0.974348	328.283
0.976582	454.545
0.976826	337.374
0.979298	349.495
0.981568	458.586
0.981744	373.737
0.98178	356.566
0.984218	384.848
0.986555	461.616
0.986702	390.909
0.989176	402.02
0.991543	464.646
0.991639	418.182
0.994039	464.646
0.994052	458.586
0.994075	447.475
0.99409	440.404
0.994121	425.253
