Adsorption isotherm of Nitrogen on UiO-66(Zr)-(COOH)2 (323K)
DOI: 10.1039/c4ta03992k
Article source: Figure S11b
Adsorbate Nitrogen: InChIKey IJGRMHOSHXDMSA-UHFFFAOYSA-N
Kind: experiment
Temperature: 77 K
Tabular data in the source: 0
pressure (bar)	uptake (cm3(STP)/g)
0.011407	125.635
0.013942	128.72
0.019011	132.577
0.024081	137.205
0.027883	138.75
0.034221	141.067
0.043092	142.615
0.050697	145.704
0.058302	145.71
0.067174	148.029
0.079848	151.121
0.091255	151.13
0.100127	151.908
0.108999	152.685
0.121673	155.007
0.130545	155.785
0.143219	157.336
0.160963	158.891
0.169835	159.668
0.186312	160.452
0.198986	162.003
0.207858	163.551
0.224335	163.564
0.243346	165.12
0.257288	166.672
0.268695	166.681
0.282636	169.004
0.299113	169.017
0.321926	170.576
0.335868	172.128
0.365019	172.921
0.370089	173.696
0.381496	174.475
0.391635	176.795
0.406844	175.265
0.418251	176.816
0.434728	179.14
0.444867	179.148
0.452471	181.466
0.461343	180.702
0.470215	180.709
0.480355	181.488
0.495564	182.27
0.506971	183.05
0.513308	183.055
0.523447	183.833
0.536122	185.384
0.551331	186.167
0.562738	187.717
0.583016	190.815
0.593156	193.906
0.60076	192.371
0.602028	195.454
0.612167	193.15
0.617237	196.237
0.622307	193.929
0.631179	197.018
0.646388	197.03
0.664132	203.209
0.665399	200.127
0.675539	200.906
0.676806	206.302
0.684411	202.454
0.685678	207.85
0.693283	210.168
0.698352	204.777
0.705957	211.719
0.714829	207.102
0.718631	214.041
0.723701	208.65
0.724968	217.129
0.731305	208.656
0.737643	220.222
0.742712	212.518
0.745247	223.31
0.751584	225.627
0.755387	214.07
0.759189	228.716
0.764259	216.389
0.766793	231.805
0.773131	217.937
0.7782	235.667
0.780735	220.255
0.787072	237.986
0.792142	224.117
0.793409	241.074
0.797212	244.93
0.799747	224.123
0.803549	248.789
0.808619	251.876
0.813688	255.733
0.816223	257.276
0.81749	231.073
0.820025	260.362
0.823828	267.302
0.825095	234.162
0.826362	269.616
0.830165	275.014
0.833967	280.412
0.837769	240.337
0.840304	285.041
0.841572	289.666
0.845374	292.752
0.847909	296.607
0.850444	303.546
0.852978	246.515
0.855513	308.945
0.858048	322.819
0.86185	251.146
0.863118	330.53
0.864385	333.614
0.86692	255.774
0.869455	345.179
0.87199	351.346
0.873257	258.091
0.875792	365.993
0.87706	261.177
0.878327	369.848
0.879594	372.162
0.880862	264.263
0.883397	375.247
0.885932	379.103
0.888466	381.417
0.889734	386.042
0.892269	387.586
0.894804	390.67
0.897338	393.755
0.898606	278.92
0.899873	395.299
0.902408	284.318
0.903676	395.301
0.907478	289.717
0.908745	394.535
0.912548	295.116
0.91635	301.284
0.918885	395.313
0.922687	307.455
0.926489	312.082
0.927757	317.478
0.931559	396.094
0.934094	325.19
0.936629	333.67
0.940431	339.068
0.945501	347.55
0.946768	353.716
0.948035	397.648
0.953105	360.657
0.959442	366.828
0.961977	369.913
0.964512	399.202
0.968314	376.854
0.969582	380.709
0.973384	400.75
0.975919	385.338
0.979721	401.526
0.980989	389.966
0.984791	393.823
0.987326	403.073
0.988593	399.991
0.99493	404.62
0.998733	407.706
