Adsorption isotherm of Methane on UiO-66(Zr)-(COOH)2 (323K)
DOI: 10.1039/c4ta03992k
Article source: Figure S12a
Adsorbate Methane: InChIKey VNWKTOKETHGBQD-UHFFFAOYSA-N
Kind: experiment
Temperature: 303 K
Tabular data in the source: 0
pressure (bar)	uptake (mmol/g)
0.065217	-0.003486
1.8913	0.285839
3.71739	0.463617
5.54348	0.592593
7.30435	0.693682
8.67391	0.763399
12.3913	0.878431
16.1087	0.944662
20.0217	0.993464
23.7391	1.01438
27.5217	1.05969
