Adsorption isotherm of Carbon Dioxide on UiO-66(Zr)-(COOH)2 (373K)
DOI: 10.1039/c4ta03992k
Article source: Figure S12b
Adsorbate Carbon Dioxide: InChIKey CURLTUGMZLYLDI-UHFFFAOYSA-N
Kind: experiment
Temperature: 303 K
Tabular data in the source: 0
pressure (bar)	uptake (mmol/g)
0.063425	-0.010893
1.64905	1.59041
3.67865	2.2549
5.5814	2.67974
7.54757	2.98475
8.81607	3.15904
12.5581	3.49673
16.4271	3.73638
20.2326	3.94336
24.0381	4.09586
27.8436	4.20479
