Adsorption isotherm of Nitrogen on UiO-66(Zr)-(COOH)2 (383K)
DOI: 10.1039/c4ta03992k
Article source: Figure S11b
Adsorbate Nitrogen: InChIKey IJGRMHOSHXDMSA-UHFFFAOYSA-N
Kind: experiment
Temperature: 77 K
Tabular data in the source: 0
pressure (bar)	uptake (cm3(STP)/g)
0.006697	113.519
0.014314	117.386
0.019391	119.706
0.028275	123.574
0.043496	127.447
0.053641	128.999
0.068862	132.872
0.086609	133.658
0.101823	135.214
0.120846	139.089
0.132256	139.87
0.155079	142.977
0.175358	142.993
0.195644	145.325
0.203251	146.103
0.218463	146.887
0.23114	147.669
0.250154	148.456
0.26283	149.238
0.272975	150.79
0.289454	151.575
0.30213	152.357
0.319879	153.915
0.326216	153.92
0.335088	153.927
0.354105	155.486
0.371856	157.816
0.3858	158.599
0.393407	159.377
0.403547	159.385
0.413686	159.393
0.42763	160.176
0.435237	160.954
0.439037	160.185
0.447917	162.508
0.470733	163.298
0.489752	165.629
0.501156	164.866
0.501163	167.182
0.51764	167.195
0.517642	167.967
0.531584	167.978
0.534122	168.752
0.541726	168.758
0.55314	171.084
0.556938	169.542
0.563282	171.864
0.568347	170.323
0.569612	169.552
0.584833	173.425
0.586096	171.881
0.586103	174.198
0.597508	173.434
0.601317	175.754
0.607652	174.987
0.617804	178.855
0.621599	176.542
0.627948	180.408
0.633008	177.323
0.641882	178.102
0.648234	182.74
0.654562	179.656
0.665976	181.981
0.668518	184.3
0.67613	186.622
0.67992	182.764
0.688797	184.316
0.697671	185.095
0.697689	190.5
0.706548	186.646
0.707833	192.052
0.719225	187.428
0.725587	195.155
0.728104	189.751
0.733199	197.477
0.738273	199.026
0.739519	192.077
0.747153	201.349
0.749661	192.857
0.756034	204.445
0.757272	195.179
0.762379	206.766
0.763612	195.956
0.768723	209.088
0.769954	197.506
0.776299	199.827
0.776338	212.183
0.782682	214.504
0.785175	201.379
0.789027	216.826
0.792785	202.929
0.796644	220.692
0.799127	204.478
0.80427	227.648
0.808009	207.574
0.813159	233.06
0.816888	209.897
0.816974	236.924
0.820788	240.788
0.82324	214.535
0.824615	248.513
0.834657	217.633
0.834781	257.015
0.839734	219.953
0.839866	261.652
0.844808	221.502
0.844955	267.834
0.847522	277.875
0.853695	226.142
0.853888	287.146
0.85771	293.326
0.861539	301.824
0.862574	228.465
0.864089	306.459
0.866391	233.101
0.866653	315.727
0.867945	323.45
0.871777	332.72
0.874006	236.196
0.875601	339.672
0.878165	348.941
0.879085	239.289
0.885777	351.263
0.886707	244.7
0.890854	353.584
0.891791	249.337
0.893069	252.427
0.899734	355.907
0.901965	260.156
0.906078	358.229
0.908317	264.794
0.912141	271.747
0.916217	358.236
0.91977	279.475
0.924869	288.745
0.926359	359.016
0.932498	296.473
0.936325	304.198
0.936504	360.569
0.941422	312.696
0.946511	318.878
0.949073	327.374
0.951715	361.353
0.95289	332.01
0.959244	337.42
0.966927	362.137
0.969408	345.15
0.975762	350.56
0.978336	362.918
0.983381	355.2
0.984686	366.784
0.988466	359.837
0.991035	370.649
0.992278	362.928
0.996095	367.565
0.997377	372.199
0.998649	373.744
