Adsorption isotherm of Carbon Dioxide on UiO-66(Zr)-(COOH)2 (473K)
DOI: 10.1039/c4ta03992k
Article source: Figure S12b
Adsorbate Carbon Dioxide: InChIKey CURLTUGMZLYLDI-UHFFFAOYSA-N
Kind: experiment
Temperature: 303 K
Tabular data in the source: 0
pressure (bar)	uptake (mmol/g)
0.063425	-0.010893
1.71247	1.86275
3.5518	2.52723
5.51797	2.94118
7.42072	3.23529
8.68922	3.3878
12.4947	3.69281
16.3002	3.92157
20.1057	4.08497
23.8478	4.20479
27.7167	4.31373
