Adsorption isotherm of Carbon Dioxide on UiO-66(Zr)-(COOH)2 (323K)
DOI: 10.1039/c4ta03992k
Article source: Figure S12b
Adsorbate Carbon Dioxide: InChIKey CURLTUGMZLYLDI-UHFFFAOYSA-N
Kind: experiment
Temperature: 303 K
Tabular data in the source: 0
pressure (bar)	uptake (mmol/g)
0.063425	-0.010893
1.7759	1.25272
3.67865	1.84096
5.51797	2.23312
7.42072	2.51634
8.68922	2.71242
12.4947	3.02832
16.3002	3.25708
20.1691	3.44227
23.9112	3.58388
27.7801	3.74728
