Adsorption isotherm of Carbon Dioxide on UiO-66(Zr)-(COOH)2 (303K)
DOI: 10.1039/c4ta03992k
Article source: Figure 11
Adsorbate Carbon Dioxide: InChIKey CURLTUGMZLYLDI-UHFFFAOYSA-N
Kind: experiment
Temperature: 303 K
Tabular data in the source: 0
pressure (bar)	uptake (mmol/g)
0	0.017682
0.276243	0.220924
0.506446	0.379978
0.782689	0.494812
1.05893	0.574282
1.10497	0.61847
1.84162	0.812708
2.85451	1.05989
2.90055	1.05104
3.6372	1.20991
3.68324	1.18337
4.92634	1.38627
4.97238	1.38626
6.35359	1.5449
8.05709	1.70344
8.7477	1.75624
9.71455	1.82662
10.4972	1.88823
11.7403	1.95852
12.2468	1.98486
13.3517	2.06404
13.8122	2.0904
15.4696	2.17822
