Adsorption isotherm of Carbon Tetrafluoride on UiO-66(Zr)-(COOH)2 (303K)
DOI: 10.1039/c4ta03992k
Article source: Figure S13b
Adsorbate Carbon Tetrafluoride: InChIKey TXEYQDLBPFQVAA-UHFFFAOYSA-N
Kind: experiment
Temperature: 303 K
Tabular data in the source: 0
pressure (bar)	uptake (mmol/g)
0.05176	0.00354
0.465839	0.02122
0.828157	0.035359
1.13872	0.049506
1.60455	0.070726
2.58799	0.098968
3.57143	0.127209
4.55487	0.166094
6.26294	0.215519
9.83437	0.321443
12.2153	0.370772
14.8551	0.420065
17.0807	0.472964
