Adsorption isotherm of Methane on UiO-66(Zr)-(COOH)2 (303K)
DOI: 10.1039/c4ta03992k
Article source: Figure S12a
Adsorbate Methane: InChIKey VNWKTOKETHGBQD-UHFFFAOYSA-N
Kind: experiment
Temperature: 303 K
Tabular data in the source: 0
pressure (bar)	uptake (mmol/g)
0.065217	-0.003486
1.8913	0.257952
3.84783	0.421786
5.86957	0.554248
7.82609	0.651852
11.6739	0.700654
15.4565	0.711111
19.2391	0.721569
23.087	0.752941
26.8696	0.749455
