Adsorption isotherm of Nitrogen on UiO-66(Zr)-(COOH) (343K)
DOI: 10.1039/c4ta03992k
Article source: Figure S11a
Adsorbate Nitrogen: InChIKey IJGRMHOSHXDMSA-UHFFFAOYSA-N
Kind: experiment
Temperature: 77 K
Tabular data in the source: 0
pressure (bar)	uptake (cm3(STP)/g)
0.013397	161.616
0.015881	167.677
0.022115	171.717
0.028346	176.768
0.03458	180.808
0.043313	183.838
0.053292	187.879
0.062029	188.889
0.077002	192.929
0.095724	194.949
0.110701	196.97
0.124432	197.98
0.14191	197.98
0.148148	200
0.154392	198.99
0.163125	202.02
0.164374	202.02
0.166875	200
0.174363	201.01
0.183096	204.04
0.190591	202.02
0.199326	204.04
0.211808	205.051
0.221793	206.061
0.233027	207.071
0.257994	208.081
0.271725	209.091
0.281712	209.091
0.291696	211.111
0.309174	211.111
0.324151	213.131
0.334138	213.131
0.346623	213.131
0.364099	214.141
0.380324	216.162
0.394057	216.162
0.411533	217.172
0.432757	217.172
0.450231	219.192
0.46521	220.202
0.483934	221.212
0.497667	221.212
0.512648	221.212
0.532619	223.232
0.548847	224.242
0.567573	224.242
0.587542	227.273
0.602523	227.273
0.619999	228.283
0.632482	229.293
0.648709	230.303
0.664937	231.313
0.682413	232.323
0.702384	234.343
0.723603	236.364
0.738582	237.374
0.752309	240.404
0.762298	239.394
0.776023	243.434
0.77977	242.424
0.787259	243.434
0.792255	242.424
0.802236	245.455
0.803484	245.455
0.815962	248.485
0.817215	246.465
0.829687	252.525
0.835931	251.515
0.843415	254.545
0.852146	258.586
0.852157	253.535
0.862125	262.626
0.865879	258.586
0.87086	264.646
0.877094	268.687
0.879603	262.626
0.88333	271.717
0.888313	276.768
0.888338	264.646
0.894549	279.798
0.899568	267.677
0.903275	285.859
0.908296	272.727
0.909505	291.919
0.91449	295.96
0.918225	301.01
0.920772	276.768
0.921958	307.071
0.925682	317.172
0.925754	282.828
0.935644	329.293
0.935722	291.919
0.939369	339.394
0.944339	350.505
0.944449	297.98
0.948064	360.606
0.949428	305.051
0.951912	311.111
0.954287	369.697
0.95551	381.818
0.956887	320.202
0.95923	393.939
0.960622	325.253
0.961702	406.061
0.962927	417.172
0.963106	331.313
0.965397	430.303
0.96683	341.414
0.969083	458.586
0.969321	344.444
0.970353	448.485
0.970561	348.485
0.971557	469.697
0.971795	355.556
0.972782	480.808
0.974277	362.626
0.975262	488.889
0.975508	370.707
0.97674	378.788
0.977734	501.01
0.977978	383.838
0.979216	388.889
0.980216	508.081
0.980443	398.99
0.98045	395.96
0.981679	405.051
0.982703	513.131
0.982913	412.121
0.985191	517.172
0.985395	419.192
0.986627	427.273
0.987862	433.333
0.989065	455.556
0.989088	444.444
0.990172	523.232
0.991543	464.646
0.992738	489.899
0.992755	481.818
0.992766	476.768
0.993913	525.253
0.993936	514.141
0.993953	506.061
0.995172	520.202
0.995216	498.99
