Adsorption isotherm of Nitrogen on UiO-66(Zr)-(COOH) (463K)
DOI: 10.1039/c4ta03992k
Article source: Figure S11a
Adsorbate Nitrogen: InChIKey IJGRMHOSHXDMSA-UHFFFAOYSA-N
Kind: experiment
Temperature: 77 K
Tabular data in the source: 0
pressure (bar)	uptake (cm3(STP)/g)
0.014754	109.091
0.017247	111.111
0.027226	115.152
0.034713	117.172
0.045944	119.192
0.054679	121.212
0.068406	124.242
0.07964	125.253
0.090873	126.263
0.112093	128.283
0.13456	130.303
0.147043	131.313
0.158276	132.323
0.176997	135.354
0.191978	135.354
0.205709	136.364
0.221938	136.364
0.239412	138.384
0.25564	139.394
0.273118	139.394
0.291843	140.404
0.304323	142.424
0.321799	143.434
0.333035	143.434
0.343016	146.465
0.35925	144.444
0.385465	145.455
0.41043	147.475
0.427908	147.475
0.447879	149.495
0.470344	152.525
0.491572	150.505
0.511543	152.525
0.530267	153.535
0.546495	154.545
0.570213	155.556
0.583944	156.566
0.60142	157.576
0.622641	158.586
0.63637	160.606
0.656345	160.606
0.671326	160.606
0.68755	163.636
0.702529	164.646
0.727493	166.667
0.744967	168.687
0.766187	170.707
0.773675	171.717
0.779913	173.737
0.792395	174.747
0.796137	176.768
0.803625	177.778
0.807377	174.747
0.819846	181.818
0.819857	176.768
0.828592	178.788
0.837318	184.848
0.842318	181.818
0.847302	186.869
0.854799	183.838
0.858525	192.929
0.866013	193.939
0.871018	188.889
0.873496	197.98
0.882247	191.919
0.884721	203.03
0.892229	194.949
0.893445	210.101
0.898464	197.98
0.899677	215.152
0.905949	201.01
0.909648	223.232
0.914682	204.04
0.915882	227.273
0.919619	231.313
0.923355	235.354
0.92341	209.091
0.925838	242.424
0.92956	253.535
0.92964	215.152
0.933379	218.182
0.935783	262.626
0.93836	224.242
0.940762	269.697
0.944493	276.768
0.945838	230.303
0.949447	295.96
0.949468	285.859
0.952049	245.455
0.952063	238.384
0.953175	304.04
0.956885	321.212
0.957028	252.525
0.960575	347.475
0.960607	332.323
0.96076	258.586
0.961792	362.626
0.963238	267.677
0.964268	372.727
0.967988	384.848
0.969464	275.758
0.970464	394.949
0.971921	294.949
0.971942	284.848
0.972938	406.061
0.975643	306.061
0.976662	416.162
0.977887	427.273
0.978114	318.182
0.981629	429.293
0.98182	337.374
0.981835	330.303
0.984287	351.515
0.985366	433.333
0.985511	363.636
0.987957	387.879
0.987974	379.798
0.987993	370.707
0.9891	438.384
0.990431	398.99
0.992844	439.394
0.992871	426.263
0.992886	419.192
0.992907	409.091
0.994088	441.414
0.9941	435.354
