Adsorption isotherm of Carbon Dioxide on UiO-66(Zr)-(COOH)2 (423K)
DOI: 10.1039/c4ta03992k
Article source: Figure S12b
Adsorbate Carbon Dioxide: InChIKey CURLTUGMZLYLDI-UHFFFAOYSA-N
Kind: experiment
Temperature: 303 K
Tabular data in the source: 0
pressure (bar)	uptake (mmol/g)
0.063425	-0.010893
1.2685	1.63399
2.537	2.24401
3.93235	2.60349
5.5814	2.9085
7.04017	3.13725
8.68922	3.35512
11.6702	3.58388
14.5243	3.81264
17.3784	3.97603
20.1057	4.11765
22.9598	4.23747
25.814	4.33551
