Adsorption isotherm of Methane on UiO-66(Zr)-(COOH)2 (303K)
DOI: 10.1039/c4ta03992k
Article source: Figure 11
Adsorbate Methane: InChIKey VNWKTOKETHGBQD-UHFFFAOYSA-N
Kind: experiment
Temperature: 303 K
Tabular data in the source: 0
pressure (bar)	uptake (mmol/g)
0.045956	-0.008858
0.367647	0.026575
0.919118	0.097441
1.33272	0.124016
1.74632	0.159449
2.61949	0.221457
4.18199	0.301181
5.1011	0.372047
5.88235	0.40748
7.72059	0.496063
9.60478	0.558071
12.9136	0.682087
14.9816	0.744094
17.739	0.823819
19.9449	0.885827
22.0588	0.938976
