Adsorption isotherm of Nitrogen on UiO-66(Zr)-(COOH) (303K)
DOI: 10.1039/c4ta03992k
Article source: Figure S11a
Adsorbate Nitrogen: InChIKey IJGRMHOSHXDMSA-UHFFFAOYSA-N
Kind: experiment
Temperature: 77 K
Tabular data in the source: 0
pressure (bar)	uptake (cm3(STP)/g)
0.012178	147.475
0.018411	151.515
0.022144	157.576
0.029626	161.616
0.035862	164.646
0.045843	167.677
0.053332	168.687
0.063309	173.737
0.080783	175.758
0.09576	177.778
0.106994	178.788
0.125714	181.818
0.143186	184.848
0.153173	184.848
0.168155	184.848
0.181888	184.848
0.198111	187.879
0.214339	188.889
0.234309	190.909
0.250537	191.919
0.269261	192.929
0.281744	193.939
0.301717	194.949
0.317944	195.96
0.332926	195.96
0.355391	198.99
0.381608	198.99
0.405327	200
0.429043	202.02
0.447765	204.04
0.470235	205.051
0.487711	206.061
0.505187	207.071
0.527657	208.081
0.542638	208.081
0.557615	210.101
0.572594	211.111
0.596313	212.121
0.610043	213.131
0.630016	214.141
0.649987	216.162
0.664966	217.172
0.6762	218.182
0.686188	218.182
0.70491	220.202
0.717395	220.202
0.729875	222.222
0.743603	224.242
0.752342	224.242
0.764823	226.263
0.778551	228.283
0.778553	227.273
0.79228	230.303
0.797278	228.283
0.806006	233.333
0.811004	231.313
0.818482	237.374
0.825979	234.343
0.828466	239.394
0.837215	234.343
0.838449	241.414
0.848432	243.434
0.848447	236.364
0.858426	240.404
0.862159	246.465
0.865915	241.414
0.868395	249.495
0.875877	253.535
0.877142	245.455
0.882113	256.566
0.887123	248.485
0.889595	260.606
0.894583	263.636
0.89461	250.505
0.900814	268.687
0.903336	256.566
0.907044	274.747
0.912029	278.788
0.91581	261.616
0.918263	282.828
0.921989	291.919
0.924467	301.01
0.924535	268.687
0.92952	272.727
0.930688	311.111
0.935661	321.212
0.936998	278.788
0.939383	332.323
0.945607	341.414
0.946967	287.879
0.948089	348.485
0.950701	292.929
0.951815	357.576
0.954297	364.646
0.955533	370.707
0.95692	304.04
0.958011	379.798
0.959239	389.899
0.960468	398.99
0.961893	314.141
0.962913	424.242
0.96419	410.101
0.966633	436.364
0.968116	323.232
0.969104	448.485
0.970332	458.586
0.971843	332.323
0.972801	471.717
0.973068	343.434
0.975544	353.535
0.978999	492.929
0.979016	484.848
0.98051	366.667
0.981475	503.03
0.981727	381.818
0.982925	406.061
0.983962	508.081
0.984199	393.939
0.984207	389.899
0.985202	512.121
0.985405	414.141
0.986639	421.212
0.98785	439.394
0.987873	428.283
0.990187	516.162
0.99033	447.475
0.991517	476.768
0.991532	469.697
0.991545	463.636
0.991564	454.545
0.992678	519.192
0.992711	503.03
0.992724	496.97
0.992732	492.929
0.992745	486.869
0.993943	511.111
0.997665	522.222
