Adsorption isotherm of Methane on UiO-66(Zr)-(COOH)2 (373K)
DOI: 10.1039/c4ta03992k
Article source: Figure S12a
Adsorbate Methane: InChIKey VNWKTOKETHGBQD-UHFFFAOYSA-N
Kind: experiment
Temperature: 303 K
Tabular data in the source: 0
pressure (bar)	uptake (mmol/g)
0.065217	-0.003486
1.82609	0.411329
3.71739	0.651852
5.47826	0.805229
7.30435	0.930719
8.41304	0.99695
12.2609	1.10153
16.1087	1.1573
19.8261	1.17473
23.6739	1.17124
27.4565	1.18519
