Adsorption isotherm of Nitrogen on UiO-66(Zr)-(COOH) (383K)
DOI: 10.1039/c4ta03992k
Article source: Figure S11a
Adsorbate Nitrogen: InChIKey IJGRMHOSHXDMSA-UHFFFAOYSA-N
Kind: experiment
Temperature: 77 K
Tabular data in the source: 0
pressure (bar)	uptake (cm3(STP)/g)
0.013399	160.606
0.018384	164.646
0.02711	170.707
0.0321	172.727
0.042079	176.768
0.053309	179.798
0.06329	182.828
0.077019	184.848
0.085751	187.879
0.105722	189.899
0.116958	189.899
0.128188	192.929
0.140672	192.929
0.159395	194.949
0.175622	195.96
0.189353	196.97
0.213069	198.99
0.231791	201.01
0.246773	201.01
0.260503	202.02
0.284218	205.051
0.302944	205.051
0.320422	205.051
0.34289	207.071
0.362861	209.091
0.374097	209.091
0.390324	210.101
0.405304	211.111
0.425279	211.111
0.442753	213.131
0.457732	214.141
0.471462	215.152
0.482696	216.162
0.51141	216.162
0.531381	218.182
0.553849	220.202
0.563839	219.192
0.5913	221.212
0.603784	221.212
0.623755	223.232
0.639983	224.242
0.659954	226.263
0.678678	227.273
0.68367	228.283
0.697401	229.293
0.701146	229.293
0.714875	231.313
0.72611	231.313
0.734845	233.333
0.742336	233.333
0.75357	234.343
0.764802	236.364
0.773541	236.364
0.787271	237.374
0.791012	239.394
0.792265	237.374
0.800994	242.424
0.803495	240.404
0.810983	241.414
0.819716	244.444
0.81972	242.424
0.829695	248.485
0.832198	245.455
0.835933	250.505
0.842184	246.465
0.847161	254.545
0.850919	248.485
0.85591	249.495
0.857144	256.566
0.86215	250.505
0.867123	260.606
0.868386	253.535
0.873359	263.636
0.873378	254.545
0.882113	256.566
0.88334	266.667
0.888319	273.737
0.892094	259.596
0.902071	264.646
0.90328	283.838
0.910798	270.707
0.912006	289.899
0.918231	297.98
0.921949	311.111
0.922017	278.788
0.930657	326.263
0.930739	286.869
0.936876	337.374
0.938221	290.909
0.943097	347.475
0.945571	358.586
0.945699	296.97
0.949436	301.01
0.950548	366.667
0.953024	376.768
0.954241	391.919
0.954411	310.101
0.957961	404.04
0.960414	425.253
0.96287	444.444
0.963118	325.253
0.964346	335.354
0.967835	458.586
0.969312	348.485
0.970296	475.758
0.971521	486.869
0.973991	500
0.975515	367.677
0.975536	357.576
0.976465	511.111
0.976738	379.798
0.977692	521.212
0.979218	387.879
0.981692	398.99
0.982923	407.071
0.983922	527.273
0.986601	439.394
0.986635	423.232
0.98665	416.162
0.989075	450.505
0.99029	466.667
0.990307	458.586
0.991402	532.323
0.993911	526.263
0.993991	487.879
0.994006	480.808
0.995151	530.303
0.995183	515.152
0.995202	506.061
0.995221	496.97
0.996385	537.374
