Adsorption isotherm of Carbon monoxide on UiO-66(Zr)-(COOH)2 (423K)
DOI: 10.1039/c4ta03992k
Article source: Figure S13b
Adsorbate Carbon monoxide: InChIKey UGFAIRIUMAVXCW-UHFFFAOYSA-N
Kind: experiment
Temperature: 303 K
Tabular data in the source: 0
pressure (bar)	uptake (mmol/g)
0.310559	0.046076
0.517598	0.088618
0.879917	0.134687
1.19048	0.173667
1.44928	0.216202
1.81159	0.251628
2.53623	0.333121
3.36439	0.418148
4.71014	0.538578
6.5735	0.697959
8.02277	0.79354
9.10973	0.864339
13.1988	1.08726
15.3727	1.19338
17.4431	1.28888
19.6687	1.37725
21.6874	1.46566
