Adsorption isotherm of Methane on UiO-66(Zr)-(COOH)2 (473K)
DOI: 10.1039/c4ta03992k
Article source: Figure S12a
Adsorbate Methane: InChIKey VNWKTOKETHGBQD-UHFFFAOYSA-N
Kind: experiment
Temperature: 303 K
Tabular data in the source: 0
pressure (bar)	uptake (mmol/g)
0.065217	-0.003486
1.82609	0.488017
3.65217	0.777342
5.41304	0.95512
7.1087	1.11198
8.41304	1.19564
12.1957	1.3281
15.913	1.38388
19.6957	1.40131
23.4783	1.41176
27.2609	1.44314
