Adsorption isotherm of Nitrogen on UiO-66(Zr)-(COOH)2 (303K)
DOI: 10.1039/c4ta03992k
Article source: Figure S13a
Adsorbate Nitrogen: InChIKey IJGRMHOSHXDMSA-UHFFFAOYSA-N
Kind: experiment
Temperature: 303 K
Tabular data in the source: 0
pressure (bar)	uptake (mmol/g)
0.05176	0
0.465839	0.017699
0.879917	0.028319
1.34576	0.046018
1.75983	0.053097
2.74327	0.084956
4.45135	0.134513
6.5735	0.19469
8.54037	0.240708
10.5072	0.283186
14.0787	0.343363
16.1491	0.382301
18.2195	0.417699
20.6004	0.453097
22.7743	0.499115
