Adsorption isotherm of Nitrogen on UiO-66(Zr)-(COOH)2 (343K)
DOI: 10.1039/c4ta03992k
Article source: Figure S11b
Adsorbate Nitrogen: InChIKey IJGRMHOSHXDMSA-UHFFFAOYSA-N
Kind: experiment
Temperature: 77 K
Tabular data in the source: 0
pressure (bar)	uptake (cm3(STP)/g)
0.010536	125.105
0.018155	129.744
0.025772	133.611
0.028312	135.157
0.035926	138.252
0.043533	139.03
0.053685	142.899
0.066364	144.453
0.070176	147.545
0.077783	148.323
0.086653	147.557
0.099334	149.884
0.110744	150.665
0.123425	152.991
0.136102	153.773
0.152581	154.558
0.167795	156.114
0.180474	157.668
0.194421	159.223
0.213437	160.783
0.233714	160.026
0.254002	163.131
0.270481	163.915
0.28696	164.7
0.313581	166.265
0.333868	168.598
0.346544	169.38
0.357956	170.933
0.3757	170.946
0.397249	171.735
0.423875	174.845
0.434019	176.397
0.453035	177.956
0.463172	177.192
0.473317	178.744
0.482189	178.751
0.494868	180.305
0.501207	181.082
0.50755	182.631
0.522759	182.643
0.525291	181.873
0.53797	183.427
0.540505	183.429
0.546845	184.206
0.555727	187.302
0.559522	184.988
0.563324	184.991
0.568398	186.539
0.577275	188.091
0.583612	188.095
0.591217	188.101
0.602629	189.655
0.602634	191.199
0.615306	190.437
0.617845	191.983
0.62291	190.442
0.627992	194.307
0.639397	193.544
0.648281	197.412
0.655876	194.329
0.657155	198.191
0.664767	200.513
0.668557	196.655
0.676179	202.067
0.677432	197.434
0.685058	204.39
0.688841	198.215
0.693935	205.941
0.702793	201.315
0.705347	207.494
0.710402	202.865
0.714224	209.046
0.721833	210.596
0.723081	204.419
0.730713	212.919
0.73323	207.516
0.739594	216.015
0.740837	208.294
0.747209	219.11
0.749712	209.073
0.758628	222.98
0.763666	212.945
0.76624	225.302
0.770008	214.494
0.773849	226.852
0.778887	216.818
0.778931	230.717
0.783959	217.594
0.786543	233.04
0.794109	220.69
0.794162	237.679
0.800517	243.089
0.805523	223.016
0.808136	247.728
0.814485	251.594
0.818212	227.659
0.81957	256.231
0.823392	262.412
0.825826	230.754
0.828481	268.593
0.833563	272.458
0.837248	235.396
0.838647	277.095
0.842477	285.593
0.84486	237.718
0.847561	290.23
0.851378	294.866
0.853746	242.358
0.85394	303.362
0.856497	310.314
0.857554	243.905
0.861601	321.129
0.86417	331.941
0.865178	250.089
0.869276	343.528
0.871527	253.955
0.8731	350.481
0.875655	356.661
0.876939	362.067
0.877874	257.049
0.882956	260.913
0.883294	367.477
0.887111	372.114
0.88804	265.551
0.889663	377.521
0.893127	270.96
0.896022	384.476
0.898552	382.933
0.899479	275.598
0.903298	281.006
0.904904	387.571
0.905848	285.642
0.910935	291.051
0.911243	388.348
0.914754	296.459
0.919844	302.641
0.920118	389.128
0.923663	308.049
0.930025	315.776
0.931522	388.364
0.936396	326.592
0.937681	331.998
0.940394	388.371
0.9415	337.407
0.946587	342.816
0.946609	349.766
0.952968	356.72
0.954341	389.926
0.959325	362.903
0.964483	390.706
0.965679	368.313
0.969494	372.177
0.975848	377.588
0.975892	391.487
0.97966	380.679
0.983504	393.81
0.984744	385.316
0.988581	396.13
0.989829	389.954
0.992376	393.817
0.99366	399.223
0.996195	399.225
0.99747	401.542
