Adsorption isotherm of Methane on UiO-66(Zr)-(COOH)2 (348K)
DOI: 10.1039/c4ta03992k
Article source: Figure S12a
Adsorbate Methane: InChIKey VNWKTOKETHGBQD-UHFFFAOYSA-N
Kind: experiment
Temperature: 303 K
Tabular data in the source: 0
pressure (bar)	uptake (mmol/g)
0.065217	-0.003486
1.82609	0.338126
3.71739	0.536819
5.54348	0.665795
7.56522	0.784314
8.80435	0.854031
12.6522	0.937691
16.4348	0.979521
20.1522	0.993464
23.8696	1.01089
27.7174	1.04227
