Adsorption isotherm of Nitrogen on UiO-66(Zr)-(COOH)2 (423K)
DOI: 10.1039/c4ta03992k
Article source: Figure S13a
Adsorbate Nitrogen: InChIKey IJGRMHOSHXDMSA-UHFFFAOYSA-N
Kind: experiment
Temperature: 303 K
Tabular data in the source: 0
pressure (bar)	uptake (mmol/g)
0.310559	0.038938
0.621118	0.067257
0.931677	0.095575
1.294	0.127434
1.5528	0.155752
2.38095	0.230088
3.36439	0.311504
4.14079	0.368142
5.59006	0.470796
8.33333	0.626549
10.559	0.739823
12.4224	0.821239
15.9938	0.945133
18.2195	1.02301
20.2381	1.09735
22.7226	1.19292
