Adsorption isotherm of Methylene blue, Water on Fe3O4/MnO2
DOI: 10.2174/1573413713666170706112204
Article source: Figure 10
Adsorbate Methylene blue: InChIKey CXKWCBBOMKCUKX-UHFFFAOYSA-M
Adsorbate Water: InChIKey XLYOFNOQVPJJNP-UHFFFAOYSA-N
Kind: experiment
Temperature: 298 K
Tabular data in the source: 0
pressure (bar)	Methylene blue fraction	Methylene blue uptake (mg/g)	Water fraction	Water uptake (mg/g)	total uptake (mg/g)
1.01325	0.329	0.109			
1.01325	7.269	3.656			
1.01325	27.55	3.732			
1.01325	47.292	3.638			
1.01325	67.573	3.696			
1.01325	98.265	3.715			
1.01325	117.624	3.808			
1.01325	148.132	3.618			
1.01325	168.049	3.785			
1.01325	197.683	3.762			
1.01325	248.206	3.811			
