Adsorption isotherm of Methylene blue, Water on Fe3O4/C/MnO2
DOI: 10.2174/1573413713666170706112204
Article source: Figure 10
Adsorbate Methylene blue: InChIKey CXKWCBBOMKCUKX-UHFFFAOYSA-M
Adsorbate Water: InChIKey XLYOFNOQVPJJNP-UHFFFAOYSA-N
Kind: experiment
Temperature: 298 K
Tabular data in the source: 0
pressure (bar)	Methylene blue fraction	Methylene blue uptake (mg/g)	Water fraction	Water uptake (mg/g)	total uptake (mg/g)
1.01325	0.329	0.109			
1.01325	1.227	16.476			
1.01325	16.141	26.699			
1.01325	33.633	32.403			
1.01325	50.036	38.334			
1.01325	78.191	43.457			
1.01325	98.267	43.368			
1.01325	127.891	43.309			
1.01325	148.211	43.399			
1.01325	197.482	43.416			
1.01325	227.779	43.446			
