Adsorption isotherm of Rhodamine B, Water on Fe3O4/C/MnO2
DOI: 10.2174/1573413713666170706112204
Article source: Figure 10
Adsorbate Rhodamine B: InChIKey PYWVYCXTNDRMGF-UHFFFAOYSA-N
Adsorbate Water: InChIKey XLYOFNOQVPJJNP-UHFFFAOYSA-N
Kind: experiment
Temperature: 298 K
Tabular data in the source: 0
pressure (bar)	Rhodamine B fraction	Rhodamine B uptake (mg/g)	Water fraction	Water uptake (mg/g)	total uptake (mg/g)
1.01325	0.329	0.109			
1.01325	2.928	12.755			
1.01325	19.882	19.223			
1.01325	38.585	23.003			
1.01325	56.511	26.772			
1.01325	85.475	28.675			
1.01325	105.305	28.631			
1.01325	135.235	28.662			
1.01325	155.099	28.681			
1.01325	185.097	28.682			
1.01325	235.761	28.74			
