Adsorption isotherm of Nitrogen on Fe3O4/C/MnO2
DOI: 10.2174/1573413713666170706112204
Article source: Figure 1
Adsorbate Nitrogen: InChIKey IJGRMHOSHXDMSA-UHFFFAOYSA-N
Kind: experiment
Temperature: 77 K
Tabular data in the source: 0
pressure (bar)	uptake (cm3(STP)/g)
0.00462	12.658
0.012807	13.675
0.029829	15.93
0.051259	17.081
0.084047	18.543
0.124394	20.492
0.141731	21.113
0.159381	21.689
0.171996	22.133
0.194692	23.284
0.225271	24.746
0.263409	26.253
0.296198	27.495
0.335288	28.737
0.37217	29.979
0.4059	31.662
0.439944	33.433
0.470514	35.027
0.480291	35.824
0.507081	36.799
0.508023	38.743
0.543324	39.41
0.543953	42.06
0.5805	47.189
0.581776	42.728
0.616449	45.427
0.617047	54.438
0.652014	60.317
0.653006	49.761
0.687618	65.137
0.687983	55.066
0.722605	68.366
0.723274	60.46
0.758534	72.434
0.758555	66.074
0.792903	70.761
0.794149	75.487
0.826725	79.098
0.827991	74.33
0.860759	78.261
0.871743	82.96
0.887752	85.802
0.896769	82.999
0.910033	84.263
0.922039	85.386
0.928514	92.714
0.93204	87.421
0.946793	89.877
0.959042	92.648
0.96576	102.675
0.973785	96.892
0.991273	103.38
0.992266	106.115
1.00274	114.249
