Adsorption isotherm of Rhodamine B, Water on Fe3O4/MnO2
DOI: 10.2174/1573413713666170706112204
Article source: Figure 10
Adsorbate Rhodamine B: InChIKey PYWVYCXTNDRMGF-UHFFFAOYSA-N
Adsorbate Water: InChIKey XLYOFNOQVPJJNP-UHFFFAOYSA-N
Kind: experiment
Temperature: 298 K
Tabular data in the source: 0
pressure (bar)	Rhodamine B fraction	Rhodamine B uptake (mg/g)	Water fraction	Water uptake (mg/g)	total uptake (mg/g)
1.01325	0.245	0.09			
1.01325	8.661	2.142			
1.01325	28.492	2.12			
1.01325	48.873	2.18			
1.01325	68.704	2.136			
1.01325	98.879	1.942			
1.01325	119.75	2.227			
1.01325	148.701	2.273			
1.01325	168.532	2.094			
1.01325	198.768	2.17			
1.01325	249.018	2.246			
