Adsorption isotherm of Methylene blue, Rhodamine B, Water on Fe3O4/C/MnO2
DOI: 10.2174/1573413713666170706112204
Article source: Figure 11
Adsorbate Methylene blue: InChIKey CXKWCBBOMKCUKX-UHFFFAOYSA-M
Adsorbate Rhodamine B: InChIKey PYWVYCXTNDRMGF-UHFFFAOYSA-N
Adsorbate Water: InChIKey XLYOFNOQVPJJNP-UHFFFAOYSA-N
Kind: experiment
Temperature: 298 K
Tabular data in the source: 0
pressure (bar)	Methylene blue fraction	Methylene blue uptake (mg/g)	Rhodamine B fraction	Rhodamine B uptake (mg/g)	Water fraction	Water uptake (mg/g)	total uptake (mg/g)
1.01325	0.385	0.347	0.326	0.245			
1.01325	0.44	9.793	3.466	3.25			
1.01325	1.445	17.357	7.081	5.662			
1.01325	6.42	27.414	15.763	8.747			
1.01325	11.573	36.041	24.743	9.707			
1.01325	25.497	48.059	43.175	13.976			
1.01325	41.38	52.963	61.786	16.937			
1.01325	67.99	64.244	91.55	16.893			
1.01325	90.099	64.158	111.497	16.987			
