Adsorption isotherm of Nitrogen on TPE-COF-III
DOI: 10.1021/acs.chemmater.8b00117
Article source: Figure S24
Adsorbate Nitrogen: InChIKey IJGRMHOSHXDMSA-UHFFFAOYSA-N
Kind: experiment
Temperature: 77 K
Tabular data in the source: 0
pressure (bar)	uptake (cm3(STP)/g)
0.001983	125.397
0.006231	143.765
0.008622	151.42
0.010216	156.523
0.02456	175.022
0.048466	189.694
0.075559	201.176
0.099466	210.745
0.124169	218.4
0.151262	226.055
0.174372	232.434
0.200669	238.813
0.226169	245.829
0.251669	253.484
0.277168	258.587
0.301872	264.966
0.325778	270.708
0.330559	271.345
0.336934	272.621
0.340918	274.535
0.347293	275.173
0.352075	277.087
0.360043	278.362
0.365621	280.276
0.371996	281.552
0.377575	282.828
0.382356	283.466
0.391918	285.379
0.401481	287.293
0.422996	292.396
0.428574	293.034
0.442918	296.862
0.454074	300.689
0.466028	308.344
0.477184	319.826
0.483559	333.222
0.487543	351.721
0.495512	369.582
0.503481	375.323
0.515434	379.789
0.530574	383.616
0.556074	389.995
0.580777	395.736
0.607074	400.839
0.633371	407.856
0.65648	412.96
0.682777	421.252
0.706683	426.993
0.733777	435.286
0.759277	443.579
0.785574	453.147
0.810277	461.44
0.835777	471.008
0.862074	482.491
0.888371	497.8
0.913871	518.213
0.937777	538.626
0.96487	576.262
0.985589	619.639
0.988777	625.38
0.994355	624.743
0.985589	580.09
0.960886	513.11
0.937777	472.284
0.909886	442.941
0.88598	425.717
0.861277	410.408
0.835777	397.65
0.810277	387.443
0.784777	377.237
0.760871	368.944
0.734574	360.014
0.709871	352.359
0.684371	344.704
0.658871	337.687
0.634965	330.032
0.608668	321.102
0.583965	315.361
0.558465	309.62
0.532168	301.965
0.507465	296.224
0.481965	291.12
0.456465	284.741
0.495512	282.522
0.432559	279
0.408653	273.259
0.397496	271.345
0.387934	267.518
0.383153	266.242
0.376778	264.966
0.3712	264.329
0.367215	260.501
0.356856	258.587
0.352075	255.398
0.346496	254.76
0.336934	252.208
0.330559	250.295
0.305059	243.597
0.279559	236.899
0.254856	229.882
0.227762	224.141
0.203856	217.124
0.178356	208.831
0.153653	201.814
0.128153	194.159
0.104247	187.78
0.093091	182.677
0.083528	178.212
0.07277	175.022
0.062809	169.919
0.05245	166.092
0.042888	161.627
0.030935	155.248
0.022169	149.506
0.010216	138.024
0.008622	134.835
0.007028	131.007
0.007028	128.456
0.007028	125.904
0.004638	120.801
0.004638	119.525
0.003841	116.973
0.003044	110.594
0.002247	102.94
0.000653	88.9058
0.000653	86.3542
0.000653	84.4405
0.000653	81.251
0.000653	77.4236
0.000653	74.872
0.000653	71.0446
0.000653	64.0277
0.000653	57.0108
0.000653	47.4423
0.000653	43.6149
0.000653	42.3391
0.000653	39.1496
0.000653	37.2359
0.000653	34.0464
0.000653	30.2189
0.000653	28.3052
0.000653	25.1157
0.000653	19.3746
