Adsorption isotherm of Nitrogen on TPE-COF-I
DOI: 10.1021/acs.chemmater.8b00117
Article source: Figure 6A
Adsorbate Nitrogen: InChIKey IJGRMHOSHXDMSA-UHFFFAOYSA-N
Kind: experiment
Temperature: 273 K
Tabular data in the source: 0
pressure (bar)	uptake ()
0.008708	1.01517
0.019731	1.15462
0.031673	1.7124
0.045451	1.85185
0.053718	2.13074
0.063823	2.40964
0.076683	2.40964
0.085869	1.9913
0.096892	2.13074
0.106077	2.68853
0.126286	2.82798
0.152006	2.82798
0.176808	3.38577
0.201609	3.52521
0.229167	3.66466
0.253968	4.22245
0.276933	4.78023
0.303571	4.91968
0.329292	4.91968
0.35593	5.33802
0.378435	5.82608
0.403696	5.8958
0.428498	6.1747
0.452381	6.73248
0.477183	6.31415
0.50474	6.87193
0.528623	7.15083
0.552506	7.01138
0.576389	7.70861
0.603028	7.70861
0.627829	7.91778
0.655387	7.98751
0.677432	7.84806
0.704071	8.12695
0.728873	8.54529
0.751837	8.68474
0.779394	8.54529
0.805115	9.10308
0.82716	8.96363
0.855636	9.10308
0.878601	9.38197
0.904321	9.24253
0.929123	9.52142
0.953924	9.66087
0.977807	9.66087
0.989749	9.80031
0.981481	9.80031
0.944738	9.80031
0.897891	9.38197
0.843695	9.52142
0.794092	9.31225
0.745407	8.96363
0.695804	8.54529
0.645282	7.98751
0.597516	7.84806
0.545157	7.84806
0.495554	7.01138
0.446869	6.45359
0.394511	6.03525
0.345826	5.75636
0.295304	5.47747
0.244782	4.91968
0.195179	4.083
0.145576	3.94355
0.095973	2.96743
0.053718	3.10687
0.010545	2.82798
