Adsorption isotherm of Nitrogen on TPE-COF-II
DOI: 10.1021/acs.chemmater.8b00117
Article source: Figure 5A
Adsorbate Nitrogen: InChIKey IJGRMHOSHXDMSA-UHFFFAOYSA-N
Kind: experiment
Temperature: 77 K
Tabular data in the source: 0
pressure (bar)	uptake ()
0	6.77966
0	23.7288
0	61.0169
0	64.4068
0	71.1864
0	83.8983
0	98.3051
0.000979	105.085
0	133.898
0.000979	155.932
0.000979	171.186
0	177.966
0	189.831
0	198.305
0.000979	208.475
0	222.034
0.002937	252.542
0.003916	271.186
0.004895	284.746
0.006853	300
0.007832	315.254
0.018601	377.966
0.026433	415.254
0.036222	450.847
0.051886	471.186
0.059718	491.525
0.072445	503.39
0.082235	511.864
0.093004	518.644
0.103772	525.424
0.12531	540.678
0.155659	562.712
0.178175	577.966
0.201671	594.915
0.227125	608.475
0.252578	623.729
0.27999	637.288
0.303486	652.542
0.330897	664.407
0.33775	667.797
0.345582	674.576
0.351456	676.271
0.35733	676.271
0.364183	679.661
0.372993	681.356
0.378867	689.831
0.388657	691.525
0.39551	696.61
0.407258	698.305
0.428796	718.644
0.456207	737.288
0.479703	747.458
0.509072	764.407
0.534526	772.881
0.557043	789.831
0.584454	801.695
0.609908	818.644
0.634383	835.593
0.657878	847.458
0.687248	867.797
0.709764	881.356
0.732281	900
0.761651	922.034
0.784167	945.763
0.806684	979.661
0.833117	1005.08
0.859549	1038.98
0.888919	1093.22
0.909478	1127.12
0.93591	1186.44
0.963322	1245.76
0.985349	1320.34
0.998565	1379.66
0.99367	1391.53
0.987796	1376.27
0.962343	1318.64
0.939826	1259.32
0.911436	1211.86
0.892835	1179.66
0.861507	1132.2
0.835075	1098.31
0.813537	1067.8
0.789062	1028.81
0.764098	1001.69
0.735218	974.576
0.710743	954.237
0.68529	932.203
0.659836	905.085
0.633404	888.136
0.610887	869.492
0.583475	850.847
0.558022	830.508
0.533058	815.254
0.515925	801.695
0.505157	796.61
0.495367	789.831
0.48264	786.441
0.479703	776.271
0.47285	774.576
0.465018	764.407
0.455228	750.847
0.44348	747.458
0.430754	737.288
0.423901	737.288
0.406279	732.203
0.39551	725.424
0.383762	715.254
0.376909	711.864
0.372014	711.864
0.365162	708.475
0.361246	701.695
0.354393	701.695
0.349498	700
0.342645	698.305
0.339708	694.915
0.333834	689.831
0.32796	688.136
0.301528	674.576
0.27999	659.322
0.254536	644.068
0.226146	630.508
0.203629	615.254
0.176217	598.305
0.151743	584.746
0.126289	567.797
0.102793	550.847
0.076361	523.729
0.048949	493.22
0.025454	423.729
0.00979	347.458
0.007832	332.203
0.004895	306.78
0.000979	259.322
