Adsorption isotherm of Carbon Dioxide on TPE-COF-I
DOI: 10.1021/acs.chemmater.8b00117
Article source: Figure 6B
Adsorbate Carbon Dioxide: InChIKey CURLTUGMZLYLDI-UHFFFAOYSA-N
Kind: experiment
Temperature: 298 K
Tabular data in the source: 0
pressure (bar)	uptake ()
0	1.83099
0.011982	2.32394
0.020276	2.46479
0.035023	3.52113
0.042396	3.87324
0.0553	4.50704
0.067281	5.14084
0.074654	5.56338
0.082949	6.19718
0.094009	6.69014
0.102304	6.90141
0.128111	8.09859
0.151152	9.29578
0.176959	10.2817
0.203687	11.338
0.22765	12.4648
0.251613	13.3803
0.276498	14.3662
0.303226	15.493
0.327189	16.2676
0.353917	17.1127
0.378802	18.169
0.403687	19.0845
0.42765	19.7183
0.451613	20.7746
0.476498	21.6197
0.504147	22.6056
0.528111	23.3099
0.553917	24.2958
0.57788	25
0.603687	25.8451
0.626728	26.831
0.6553	27.5352
0.678341	28.4507
0.702304	29.2254
0.728111	30.1408
0.752074	31.0563
0.779724	31.831
0.803687	32.6761
0.82765	33.7324
0.852535	34.4366
0.877419	34.7887
0.904147	35.5634
0.926728	36.6901
0.951152	37.6056
0.976037	38.169
0.987097	38.5211
0.979724	38.8732
0.9447	38.3803
0.894009	37.1127
0.845161	35.7746
0.795392	34.5775
0.745622	33.5211
0.694931	32.1831
0.646083	30.7746
0.593548	29.3662
0.545622	27.7465
0.494931	26.1972
0.446083	24.5775
0.395392	22.7465
0.345622	20.9859
0.295853	19.0845
0.246083	16.9718
0.195392	14.7183
0.1447	12.6761
0.094931	9.92958
0.053456	7.60563
0.009217	4.15493
