Adsorption isotherm of Nitrogen on TPE-COF-II
DOI: 10.1021/acs.chemmater.8b00117
Article source: Figure 6A
Adsorbate Nitrogen: InChIKey IJGRMHOSHXDMSA-UHFFFAOYSA-N
Kind: experiment
Temperature: 273 K
Tabular data in the source: 0
pressure (bar)	uptake (cm3(STP)/g)
0.000441	1.15462
0.010545	1.43351
0.019731	1.29406
0.037184	1.9913
0.045451	2.13074
0.054637	2.13074
0.062904	2.27019
0.073927	2.40964
0.083113	2.40964
0.096892	2.54908
0.106077	3.10687
0.128123	3.24632
0.150169	3.80411
0.178645	3.80411
0.201609	4.50134
0.224574	4.91968
0.252131	5.33802
0.276473	5.61691
0.303571	5.8958
0.327454	6.1747
0.352256	6.73248
0.377976	7.01138
0.405534	7.15083
0.429417	7.29027
0.4533	7.84806
0.47902	8.12695
0.503821	8.12695
0.527245	8.89391
0.553424	9.10308
0.577307	9.10308
0.605783	9.38197
0.625992	9.52142
0.654468	9.66087
0.676514	10.0792
0.705908	10.0792
0.727954	10.7764
0.753674	10.637
0.779394	11.1948
0.806952	11.1948
0.828079	11.1948
0.852881	11.4737
0.881357	11.892
0.903402	11.892
0.930041	12.3104
0.95668	12.4498
0.97597	12.5892
0.990667	13.0076
0.979644	13.0076
0.947494	12.1709
0.896972	12.3104
0.842776	12.0315
0.794092	11.4737
0.747244	11.3342
0.693967	10.7764
0.648038	10.3581
0.59476	10.2187
0.547913	9.38197
0.493717	8.96363
0.443195	8.54529
0.396348	8.2664
0.347663	7.42972
0.293467	7.01138
0.243864	5.8958
0.194261	5.47747
0.14282	4.50134
0.095054	3.66466
0.044533	2.68853
0.009627	2.27019
