Adsorption isotherm of Carbon Dioxide on TPE-COF-I
DOI: 10.1021/acs.chemmater.8b00117
Article source: Figure 6A
Adsorbate Carbon Dioxide: InChIKey CURLTUGMZLYLDI-UHFFFAOYSA-N
Kind: experiment
Temperature: 273 K
Tabular data in the source: 0
pressure (bar)	uptake (cm3(STP)/g)
0.007619	1.44578
0.020952	2.89157
0.034286	4.62651
0.04381	5.20482
0.051429	5.78313
0.062857	6.6506
0.070253	7.56917
0.083113	8.2664
0.094595	9.38197
0.105159	10.2187
0.128123	11.892
0.152006	13.4259
0.174971	15.3782
0.202528	17.6093
0.225492	19.5616
0.251213	21.2349
0.279688	22.7689
0.300816	24.7211
0.328373	26.8128
0.353175	28.2073
0.37522	30.4384
0.402778	32.2512
0.426661	33.3668
0.4533	35.1796
0.475345	36.853
0.502903	38.5263
0.527704	40.3391
0.554343	41.873
0.577307	43.407
0.602109	45.3592
0.629666	46.3353
0.654468	48.0087
0.676514	49.2637
0.70499	50.6582
0.727954	53.0288
0.755511	53.8655
0.778476	56.0966
0.802359	56.9333
0.829916	58.4672
0.851962	59.7222
0.874927	61.535
0.90524	63.6267
0.926367	65.9973
0.953924	67.1129
0.97597	68.3679
0.987912	69.4138
0.980563	69.344
0.945657	68.0193
0.897891	65.8579
0.845991	62.9295
0.795929	60.4195
0.747244	57.4911
0.696723	54.5627
0.647119	51.6343
0.596598	49.1243
0.546994	45.4987
0.495554	42.2914
0.445032	39.2236
0.396348	35.5979
0.343989	32.3907
0.296223	28.7651
0.245701	25.1394
0.195179	21.0955
0.144658	17.191
0.096892	12.8681
0.045451	8.68474
0.011464	4.91968
