Adsorption isotherm of Nitrogen on TPE-COF-I
DOI: 10.1021/acs.chemmater.8b00117
Article source: Figure 5A
Adsorbate Nitrogen: InChIKey IJGRMHOSHXDMSA-UHFFFAOYSA-N
Kind: experiment
Temperature: 77 K
Tabular data in the source: 0
pressure (bar)	uptake (cm3(STP)/g)
0	37.2881
0	113.559
0	155.932
0	183.051
0	226.271
0	245.763
0	254.237
0	272.881
0	291.525
0.012727	316.949
0.021538	333.898
0.031328	340.678
0.041117	354.237
0.051886	361.017
0.060697	366.102
0.073424	369.492
0.082235	376.271
0.092025	383.051
0.103772	391.525
0.130205	400
0.151743	411.864
0.177196	420.339
0.203629	432.203
0.228104	440.678
0.254536	450.847
0.280969	462.712
0.302507	467.797
0.329918	483.051
0.336771	483.051
0.346561	484.746
0.351456	486.441
0.358309	489.831
0.36712	496.61
0.372993	494.915
0.376909	494.915
0.381804	498.305
0.384741	501.695
0.396489	506.78
0.408237	510.169
0.431733	520.339
0.455228	530.508
0.48264	538.983
0.508583	550.847
0.532568	557.627
0.557043	569.492
0.582986	579.661
0.608929	586.441
0.636341	601.695
0.659836	610.169
0.684311	622.034
0.709764	633.898
0.734239	645.763
0.761651	657.627
0.787104	674.576
0.809621	689.831
0.833117	713.559
0.860528	735.593
0.886961	766.102
0.909478	794.915
0.938847	845.763
0.962343	903.39
0.986328	1002.54
0.996607	1067.8
0.985838	1055.93
0.964301	989.831
0.940805	928.814
0.912414	879.661
0.888919	857.627
0.862486	833.898
0.838012	808.475
0.811579	793.22
0.787104	777.966
0.759693	764.407
0.734239	750.847
0.709764	742.373
0.682353	723.729
0.656899	716.949
0.631446	703.39
0.60795	689.831
0.579559	681.356
0.558022	674.576
0.53061	664.407
0.513967	657.627
0.504178	649.153
0.495367	642.373
0.488514	623.729
0.48264	596.61
0.475787	579.661
0.465018	559.322
0.455228	549.153
0.442501	544.068
0.428796	540.678
0.421943	532.203
0.402363	525.424
0.391594	522.034
0.383762	516.949
0.376909	513.559
0.371036	520.339
0.36712	513.559
0.360267	513.559
0.351456	506.78
0.346561	506.78
0.340687	505.085
0.33775	503.39
0.330897	501.695
0.326002	501.695
0.303486	484.746
0.277053	481.356
0.251599	467.797
0.225167	454.237
0.199713	447.458
0.174259	433.898
0.150764	427.119
0.126289	415.254
0.099857	405.085
0.074403	388.136
0.046991	369.492
0.021538	347.458
