Adsorption isotherm of Carbon Dioxide on TPE-COF-II
DOI: 10.1021/acs.chemmater.8b00117
Article source: Figure 6A
Adsorbate Carbon Dioxide: InChIKey CURLTUGMZLYLDI-UHFFFAOYSA-N
Kind: experiment
Temperature: 273 K
Tabular data in the source: 0
pressure (bar)	uptake (cm3(STP)/g)
0.004115	2.13074
0.010545	3.52521
0.022487	5.61691
0.03351	8.2664
0.042695	10.0792
0.054637	11.892
0.06566	13.5654
0.074846	15.7965
0.08495	17.3304
0.094136	19.2827
0.103322	20.8166
0.129042	24.7211
0.152006	28.9045
0.175889	32.9485
0.201609	36.853
0.22733	40.3391
0.251213	44.1042
0.277851	47.5904
0.299897	50.7976
0.327454	54.1444
0.354093	57.77
0.377058	60.8378
0.403696	64.324
0.424824	67.1129
0.454218	70.1807
0.479938	73.388
0.500147	75.7586
0.528623	78.4081
0.552506	81.3365
0.579145	83.707
0.599353	86.496
0.627829	89.006
0.653549	91.6555
0.678351	94.0261
0.702234	96.3967
0.727036	98.7673
0.750919	101.138
0.778476	102.951
0.802359	105.182
0.828998	107.274
0.851044	109.644
0.875845	111.317
0.904321	113.409
0.929123	115.501
0.952087	116.895
0.976889	118.848
0.004115	2.13074
0.010545	3.52521
0.022487	5.61691
0.03351	8.2664
0.042695	10.0792
0.054637	11.892
0.06566	13.5654
0.074846	15.7965
0.08495	17.3304
0.094136	19.2827
0.103322	20.8166
0.129042	24.7211
0.152006	28.9045
0.175889	32.9485
0.201609	36.853
0.22733	40.3391
0.251213	44.1042
0.277851	47.5904
0.299897	50.7976
0.327454	54.1444
0.354093	57.77
0.377058	60.8378
0.403696	64.324
0.424824	67.1129
0.454218	70.1807
0.479938	73.388
0.500147	75.7586
0.528623	78.4081
0.552506	81.3365
0.579145	83.707
0.599353	86.496
0.627829	89.006
0.653549	91.6555
0.678351	94.0261
0.702234	96.3967
0.727036	98.7673
0.750919	101.138
0.778476	102.951
0.802359	105.182
0.828998	107.274
0.851044	109.644
0.875845	111.317
0.904321	113.409
0.929123	115.501
0.952087	116.895
0.976889	118.848
