Adsorption isotherm of Carbon Dioxide on TPE-COF-II
DOI: 10.1021/acs.chemmater.8b00117
Article source: Figure 6B
Adsorbate Carbon Dioxide: InChIKey CURLTUGMZLYLDI-UHFFFAOYSA-N
Kind: experiment
Temperature: 298 K
Tabular data in the source: 0
pressure (bar)	uptake (cm3(STP)/g)
0.000922	2.11268
0.010138	2.95775
0.021198	4.15493
0.03318	6.05634
0.043318	6.97183
0.052535	8.30986
0.066359	9.3662
0.076498	10.3521
0.084793	11.4085
0.094931	12.2535
0.104147	13.0986
0.124424	15.2113
0.152074	17.3239
0.176037	19.3662
0.204608	21.0563
0.226728	23.0282
0.251613	24.4366
0.277419	26.2676
0.305069	27.8873
0.327189	29.4014
0.351152	30.7042
0.376959	32.1831
0.400922	33.662
0.428571	35.2113
0.452535	36.4085
0.477419	37.7465
0.503226	39.1549
0.527189	40.2817
0.551152	41.7606
0.57788	42.7465
0.600922	44.0141
0.628571	45.0704
0.653456	46.2676
0.680184	47.5352
0.703226	48.7324
0.725346	49.3662
0.751152	50.7746
0.776959	52.1127
0.801843	53.169
0.828571	54.0845
0.852535	55.0352
0.877419	56.2676
0.904147	57.4648
0.927189	58.2394
0.953917	59.0141
0.976959	60.0704
0.989862	60.5634
0.97788	60.4225
0.9447	59.0845
0.894009	57.7465
0.84424	55.6338
0.793548	53.8732
0.742857	52.1831
0.694931	50.5634
0.643318	48.7324
0.595392	47.1127
0.545622	45.1408
0.493088	42.3239
0.446083	39.507
0.39447	37.1127
0.3447	34.6479
0.296774	31.9718
0.243318	28.8028
0.19447	25.493
0.145622	21.6197
0.097696	17.2535
0.04424	11.4789
0.010138	6.19718
