Adsorption isotherm of Nitrogen on POST-66(Y)
DOI: 10.1002/anie.201506391
Article source: Figure 2a
Adsorbate Nitrogen: InChIKey IJGRMHOSHXDMSA-UHFFFAOYSA-N
Kind: experiment
Temperature: 77 K
Tabular data in the source: 0
pressure (bar)	uptake (cm3(STP)/g)
0	0
9.2e-05	227.273
0.000504	200
0.002934	272.727
0.00321	254.545
0.003485	236.364
0.01669	296.97
0.023154	336.364
0.03668	375.758
0.043329	403.03
0.049931	433.333
0.056442	469.697
0.066896	478.788
0.087758	500
0.108849	506.061
0.137047	509.091
0.165199	515.152
0.179275	518.182
0.207427	524.242
0.232141	524.242
0.263824	530.303
0.281476	530.303
0.299129	530.303
0.334342	536.364
0.355525	536.364
0.387345	533.333
0.412013	536.364
0.43668	539.394
0.450802	539.394
0.486061	542.424
0.507244	542.424
0.535442	545.455
0.563686	545.455
0.584915	542.424
0.609582	545.455
0.630765	545.455
0.6696	545.455
0.680146	548.485
0.715451	548.485
0.733058	551.515
0.771893	551.515
0.789546	551.515
0.810729	551.515
0.828427	548.485
0.856579	554.545
0.888354	554.545
0.923658	554.545
0.969509	557.576
0.983631	557.576
1.0083	560.606
