Adsorption isotherm of Nitrogen on POST-66(Y)-wt-1hin
DOI: 10.1002/anie.201506391
Article source: Figure 4a
Adsorbate Nitrogen: InChIKey IJGRMHOSHXDMSA-UHFFFAOYSA-N
Kind: experiment
Temperature: 77 K
Tabular data in the source: 0
pressure (bar)	uptake (cm3(STP)/g)
0	2.82258
0	129.839
0.005623	138.306
0.017867	143.952
0.030112	149.597
0.039333	152.419
0.054676	158.065
0.070169	158.065
0.082488	160.887
0.104028	166.532
0.131916	166.532
0.150433	169.355
0.178171	175
0.20296	175
0.230698	180.645
0.252313	183.468
0.280125	186.29
0.314061	191.935
0.357366	194.758
0.409893	200.403
0.477688	214.516
0.489108	251.21
0.508749	211.694
0.535212	265.323
0.564374	217.339
0.593787	276.613
0.616976	220.161
0.646163	287.903
0.654009	225.806
0.695216	307.661
0.712508	239.919
0.713358	324.597
0.749567	361.29
0.761712	254.032
0.764461	383.871
0.782153	417.742
0.783177	262.5
0.793272	465.726
0.802044	485.484
0.804643	270.968
0.813613	516.532
0.825958	285.081
0.840751	544.758
0.84395	307.661
0.861992	561.694
0.864966	333.065
0.879335	375.403
0.880434	567.339
0.887956	400.806
0.893403	429.032
0.895678	460.081
0.90205	570.161
0.903773	505.242
0.921241	547.581
0.926688	575.806
0.994484	589.919
