Adsorption isotherm of Nitrogen on POST-66(Y)-wt-30min
DOI: 10.1002/anie.201506391
Article source: Figure 4a
Adsorbate Nitrogen: InChIKey IJGRMHOSHXDMSA-UHFFFAOYSA-N
Kind: experiment
Temperature: 77 K
Tabular data in the source: 0
pressure (bar)	uptake (cm3(STP)/g)
0	2.82258
0.001549	175
0.007372	189.113
0.016293	203.226
0.028162	222.984
0.046304	239.919
0.064371	259.677
0.094983	273.79
0.119697	276.613
0.141237	282.258
0.159754	285.081
0.199886	290.726
0.230797	293.548
0.25861	296.371
0.274028	299.194
0.304865	304.839
0.351194	310.484
0.3945	313.306
0.453149	321.774
0.479537	378.226
0.499629	321.774
0.531839	392.339
0.545882	330.242
0.581267	397.984
0.595311	335.887
0.633494	414.919
0.650786	347.177
0.691468	448.79
0.697115	352.823
0.736748	493.952
0.74322	366.935
0.778854	541.935
0.792273	386.694
0.821635	564.516
0.834829	417.742
0.86719	482.661
0.881784	516.532
0.896002	564.516
0.991835	572.984
