Adsorption isotherm of Nitrogen on POST-66(Y)-wt-24h
DOI: 10.1002/anie.201506391
Article source: Figure 2a
Adsorbate Nitrogen: InChIKey IJGRMHOSHXDMSA-UHFFFAOYSA-N
Kind: experiment
Temperature: 77 K
Tabular data in the source: 0
pressure (bar)	uptake (cm3(STP)/g)
0	0
0.002843	45.4545
0.012059	136.364
0.029619	142.424
0.057817	145.455
0.078909	151.515
0.110683	151.515
0.131774	157.576
0.163503	160.606
0.191746	160.606
0.219899	166.667
0.244613	166.667
0.27281	169.697
0.301008	172.727
0.35039	175.758
0.399771	178.788
0.445529	187.879
0.498303	200
0.498441	190.909
0.547593	209.091
0.551306	196.97
0.600504	212.121
0.600687	200
0.642732	221.212
0.650022	206.061
0.698991	236.364
0.699266	218.182
0.744612	254.545
0.755525	233.333
0.762127	263.636
0.797661	248.485
0.800504	293.939
0.808207	251.515
0.81082	312.121
0.824484	342.424
0.836083	275.758
0.84154	381.818
0.847684	442.424
0.850847	466.667
0.854057	487.879
0.857083	287.879
0.857358	503.03
0.860614	521.212
0.867308	545.455
0.874185	324.242
0.88794	348.485
0.891472	581.818
0.894864	357.576
0.901604	378.788
0.91137	433.333
0.924804	478.788
0.927877	509.091
0.938101	533.333
0.941081	569.697
0.94131	554.545
0.944337	587.879
0.990233	587.879
