Adsorption isotherm of Nitrogen on POST-66(Y)-wt-5min
DOI: 10.1002/anie.201506391
Article source: Figure 4a
Adsorbate Nitrogen: InChIKey IJGRMHOSHXDMSA-UHFFFAOYSA-N
Kind: experiment
Temperature: 77 K
Tabular data in the source: 0
pressure (bar)	uptake (cm3(STP)/g)
0	2.82258
0.000275	222.984
0.005348	265.323
0.016992	293.548
0.031886	316.129
0.043681	338.71
0.058349	369.758
0.070294	386.694
0.097956	395.161
0.116473	397.984
0.137939	406.452
0.159554	409.274
0.193489	414.919
0.21208	414.919
0.233696	417.742
0.252288	417.742
0.276927	423.387
0.30474	426.21
0.32643	426.21
0.348045	429.032
0.375708	437.5
0.400572	434.677
0.440704	440.323
0.470791	474.194
0.485309	510.887
0.505701	443.145
0.525367	519.355
0.555128	448.79
0.577743	530.645
0.601383	457.258
0.627021	541.935
0.653985	460.081
0.6763	553.226
0.700239	468.548
0.71938	564.516
0.749442	482.661
0.759438	572.984
0.795472	499.597
0.805842	575.806
0.844075	536.29
0.861617	575.806
0.982238	584.274
