Adsorption isotherm of Nitrogen on POST-66(Y)-wt-10min
DOI: 10.1002/anie.201506391
Article source: Figure 4a
Adsorbate Nitrogen: InChIKey IJGRMHOSHXDMSA-UHFFFAOYSA-N
Kind: experiment
Temperature: 77 K
Tabular data in the source: 0
pressure (bar)	uptake (cm3(STP)/g)
0	2.82258
0.003224	228.629
0.003598	214.516
0.008746	254.032
0.02364	276.613
0.035509	296.371
0.047529	310.484
0.0563	330.242
0.071343	347.177
0.092959	350
0.117523	358.468
0.148434	361.29
0.169975	366.935
0.188491	369.758
0.219328	375.403
0.241018	375.403
0.271929	378.226
0.290446	381.048
0.318259	383.871
0.342973	386.694
0.376908	392.339
0.407744	397.984
0.43873	397.984
0.457247	400.806
0.478113	431.855
0.486434	468.548
0.512948	403.629
0.523467	474.194
0.556178	409.274
0.581966	488.306
0.608705	414.919
0.640465	502.419
0.658132	420.565
0.689444	525
0.698265	426.21
0.729277	541.935
0.753665	440.323
0.769333	550.403
0.790549	451.613
0.811865	465.726
0.824884	558.871
0.830082	479.839
0.842026	496.774
0.862742	533.468
0.890105	553.226
0.955101	556.048
0.995008	570.161
