Adsorption isotherm of Nitrogen on POST-66(Y)-wt-2hin
DOI: 10.1002/anie.201506391
Article source: Figure 4a
Adsorbate Nitrogen: InChIKey IJGRMHOSHXDMSA-UHFFFAOYSA-N
Kind: experiment
Temperature: 77 K
Tabular data in the source: 0
pressure (bar)	uptake (cm3(STP)/g)
0	2.82258
0	118.548
0.005922	127.016
0.011895	135.484
0.021041	141.129
0.027088	146.774
0.04553	152.419
0.060948	155.242
0.07939	160.887
0.094808	163.71
0.116348	169.355
0.138039	169.355
0.181194	177.823
0.212106	180.645
0.258435	186.29
0.307938	189.113
0.363488	197.581
0.409893	200.403
0.443828	206.048
0.471491	214.516
0.489108	251.21
0.508824	208.871
0.535287	262.5
0.555229	211.694
0.59696	273.79
0.604507	222.984
0.649186	290.726
0.657033	228.629
0.692193	304.839
0.700264	234.274
0.71963	321.774
0.746618	355.645
0.752566	248.387
0.764611	378.226
0.782228	414.919
0.795347	270.968
0.796521	460.081
0.802119	482.661
0.81074	508.065
0.828981	287.903
0.837503	550.403
0.859219	316.129
0.861992	561.694
0.873737	352.823
0.885082	392.339
0.890679	414.919
0.895977	448.79
0.907022	499.597
0.907697	474.194
0.909447	525
0.92359	575.806
0.99146	587.097
