Adsorption isotherm of Nitrogen on POST-66(Y)
DOI: 10.1002/anie.201506391
Article source: Figure 4a
Adsorbate Nitrogen: InChIKey IJGRMHOSHXDMSA-UHFFFAOYSA-N
Kind: experiment
Temperature: 77 K
Tabular data in the source: 0
pressure (bar)	uptake (cm3(STP)/g)
0	0
0.002149	152.419
0.002174	268.145
0.010345	310.484
0.018667	347.177
0.027213	375.403
0.03296	392.339
0.038483	417.742
0.04393	445.968
0.055425	479.839
0.064346	493.952
0.067295	499.597
0.085662	508.065
0.094733	516.532
0.110151	519.355
0.128593	525
0.134716	527.823
0.159429	530.645
0.174847	533.468
0.19344	533.468
0.211956	536.29
0.227449	536.29
0.24589	541.935
0.258286	541.935
0.279901	544.758
0.298492	544.758
0.32638	544.758
0.354193	547.581
0.378982	547.581
0.397573	547.581
0.431509	553.226
0.453123	556.048
0.481011	556.048
0.5058	556.048
0.530664	553.226
0.549181	556.048
0.580093	558.871
0.604881	558.871
0.626572	558.871
0.660581	561.694
0.713258	561.694
0.772057	564.516
0.843251	567.339
0.90205	570.161
1.00113	572.984
