Adsorption isotherm of Nitrogen on POST-66(Y)-wt-24hin
DOI: 10.1002/anie.201506391
Article source: Figure 4a
Adsorbate Nitrogen: InChIKey IJGRMHOSHXDMSA-UHFFFAOYSA-N
Kind: experiment
Temperature: 77 K
Tabular data in the source: 0
pressure (bar)	uptake (cm3(STP)/g)
0	2.82258
0.003423	104.435
0.006147	118.548
0.012045	129.839
0.024214	138.306
0.051952	143.952
0.070394	149.597
0.104328	155.242
0.141438	158.065
0.172274	163.71
0.218678	166.532
0.265007	172.177
0.308313	175
0.360915	177.823
0.404146	183.468
0.456672	189.113
0.493256	211.694
0.515396	194.758
0.548957	214.516
0.558702	197.581
0.604507	222.984
0.611229	203.226
0.647587	234.274
0.651211	214.516
0.699814	251.21
0.706836	220.161
0.72113	265.323
0.748418	287.903
0.75589	239.919
0.760512	299.194
0.778654	316.129
0.793098	355.645
0.798745	259.677
0.804293	400.806
0.809891	423.387
0.815413	448.79
0.82101	471.371
0.829182	513.71
0.832081	287.903
0.8437	550.403
0.84395	307.661
0.864291	358.468
0.875711	395.161
0.881309	417.742
0.883758	558.871
0.886831	443.145
0.889256	468.548
0.9003	519.355
0.920866	561.694
0.964022	570.161
0.972568	598.387
