Adsorption isotherm of Nitrogen on POST-66(Y)-wt-12hin
DOI: 10.1002/anie.201506391
Article source: Figure 4a
Adsorbate Nitrogen: InChIKey IJGRMHOSHXDMSA-UHFFFAOYSA-N
Kind: experiment
Temperature: 77 K
Tabular data in the source: 0
pressure (bar)	uptake (cm3(STP)/g)
0	2.82258
0.003049	118.548
0.005922	127.016
0.021116	138.306
0.036384	146.774
0.061173	146.774
0.07969	149.597
0.107427	155.242
0.135165	160.887
0.166077	163.71
0.200086	166.532
0.240293	169.355
0.280425	175
0.329853	180.645
0.385554	183.468
0.444203	191.935
0.456597	191.935
0.493331	208.871
0.499903	194.758
0.543133	200.403
0.561276	217.339
0.598459	217.339
0.601932	203.226
0.64199	211.694
0.644714	225.806
0.694367	222.984
0.697016	239.919
0.743045	256.855
0.752866	237.097
0.770557	270.968
0.794522	302.016
0.801918	256.855
0.809565	318.952
0.827333	350
0.832455	273.79
0.838527	395.161
0.846099	460.081
0.850372	299.194
0.851471	491.129
0.853371	536.29
0.853971	513.71
0.865016	564.516
0.874561	321.774
0.889055	592.742
0.889305	350
0.894677	381.048
0.908521	443.145
0.919867	482.661
0.924639	536.29
0.930236	558.871
0.93591	578.629
0.938558	595.565
0.97869	601.21
