Adsorption isotherm of Nitrogen on CuBTC
DOI: 10.1039/C2cc34416e
Adsorbate Nitrogen: InChIKey IJGRMHOSHXDMSA-UHFFFAOYSA-N
Temperature: 77 K
Tabular data in the source: 0
pressure (bar)	uptake (cm3(STP)/g)
0	37.6176
0.0131881	52.6305
0.0329701	60.103
0.0549502	62.5541
0.0769303	65.0052
0.0989104	67.4563
0.107702	69.9414
0.129683	69.8847
0.145069	72.3528
0.167049	72.2961
0.189029	74.7472
0.208811	74.6961
0.250573	77.0961
0.272553	79.5472
0.298929	79.4791
0.320909	81.9302
0.349483	84.3643
0.371464	84.3076
0.395642	84.2452
0.417622	86.6963
0.446196	89.1303
0.468176	91.5814
0.542908	93.8964
0.564888	96.3475
0.593462	98.7815
0.615443	98.7248
0.650611	103.65
0.672591	103.593
0.701165	108.535
0.729739	108.461
0.747323	113.431
0.833045	133.273
0.855026	138.232
0.870412	153.239
0.887996	163.225
0.903382	178.232
0.914372	198.267
0.929758	250.892
0.936352	275.953
0.942946	303.522
0.947342	351.16
0.956134	614.46
0.964926	774.939
