Adsorption isotherm of Nitrogen on CuBTC
DOI: 10.1039/C2cc34416e
Adsorbate Nitrogen: InChIKey IJGRMHOSHXDMSA-UHFFFAOYSA-N
Temperature: 77 K
Tabular data in the source: 0
pressure (bar)	uptake (cm3(STP)/g)
0.00504686	107.348
0.0227109	127.796
0.0403749	143.131
0.0656091	155.911
0.08832	166.134
0.111031	171.246
0.138789	176.358
0.206921	191.693
0.232155	196.805
0.254866	199.361
0.280101	201.917
0.302811	207.029
0.328046	209.585
0.36085	214.696
0.383561	219.808
0.408795	219.808
0.43403	222.364
0.446647	224.92
0.471881	227.476
0.494592	230.032
0.519826	232.588
0.545061	235.144
0.570295	237.7
0.630857	245.367
0.678802	250.479
0.71413	258.147
0.769646	265.815
0.812544	281.15
0.825161	288.818
0.852919	306.709
0.87563	322.045
0.898341	350.16
0.910958	373.163
0.918528	401.278
0.928622	424.281
0.933669	452.396
0.938715	477.955
0.943762	503.514
0.951333	536.741
0.958903	651.757
0.96395	774.441
