Adsorption isotherm of Nitrogen on CuBTC
DOI: 10.1039/C2cc34416e
Adsorbate Nitrogen: InChIKey IJGRMHOSHXDMSA-UHFFFAOYSA-N
Temperature: 77 K
Tabular data in the source: 0
pressure (bar)	uptake (cm3(STP)/g)
0.00439602	165.506
0.0131881	188.054
0.0351681	200.536
0.0637423	207.986
0.0967124	215.424
0.116494	215.373
0.151663	217.79
0.178039	220.23
0.254969	225.047
0.290137	229.972
0.342889	232.344
0.391246	234.727
0.437404	239.623
0.487958	242.001
0.536314	244.384
0.582472	246.772
0.635225	249.144
0.679185	254.046
0.729739	256.423
0.778095	266.33
0.797877	266.279
0.828649	273.723
0.852828	283.692
0.874808	291.159
0.901184	306.138
0.920966	333.673
0.940748	413.873
0.951738	501.618
0.953936	619.481
0.964926	732.305
