Adsorption isotherm of Methane on CuBTC
DOI: 10.1021/Jp407176j
Adsorbate Methane: InChIKey VNWKTOKETHGBQD-UHFFFAOYSA-N
Temperature: 298 K
Tabular data in the source: 0
pressure (bar)	uptake (molecules/unitcell)
0.101864	2.14584
0.152339	2.98702
0.199891	3.46769
0.249418	4.42903
0.373007	5.63071
0.49939	7.07273
0.586619	7.91391
0.739367	9.35592
0.989881	10.9181
1.51047	13.8021
1.96212	16.6862
3.18034	23.1753
5.00164	29.5442
7.40513	37.3551
10.0144	43.8442
