Adsorption isotherm of Nitrogen on CuBTC
DOI: 10.1021/Jp407176j
Adsorbate Nitrogen: InChIKey IJGRMHOSHXDMSA-UHFFFAOYSA-N
Temperature: 298 K
Tabular data in the source: 0
pressure (bar)	uptake (molecules/unitcell)
0.0990035	0.250156
0.150424	0.583829
0.198522	0.695053
0.252127	0.917501
0.49489	1.02873
0.589538	1.3624
0.742358	1.3624
1.00944	1.02873
1.50134	1.91852
2.01552	2.02974
5.06751	3.14198
7.47281	3.03076
9.94683	3.25321
