Adsorption isotherm of Carbon Dioxide on CuBTC
DOI: 10.1021/Jp407176j
Adsorbate Carbon Dioxide: InChIKey CURLTUGMZLYLDI-UHFFFAOYSA-N
Temperature: 298 K
Tabular data in the source: 0
pressure (bar)	uptake (molecules/unitcell)
0.098835	9.73824
0.150813	13.234
0.203954	16.3803
0.249418	20.2256
0.49939	31.7618
0.604596	37.0055
0.739367	42.9483
1.49535	67.0693
2.00201	77.2071
5.10331	109.718
7.40513	118.458
10.3213	123.002
