Adsorption isotherm of Carbon Dioxide on CuBTC
DOI: 10.1021/Jp407176j
Adsorbate Carbon Dioxide: InChIKey CURLTUGMZLYLDI-UHFFFAOYSA-N
Temperature: 298 K
Tabular data in the source: 0
pressure (bar)	uptake (molecules/unitcell)
0.101836	2.67566
0.148261	3.87412
0.21751	5.47207
0.309469	7.07002
0.380629	9.26721
0.529239	12.0636
0.741533	14.4605
1.01536	18.8549
1.25845	23.2493
1.62067	27.6436
1.99333	32.6372
2.39595	41.6257
2.83607	49.8152
3.43513	60.0022
4.0351	67.5924
4.70365	75.5822
5.35833	82.773
6.19843	90.1635
6.95372	96.755
7.62371	102.947
8.81898	106.343
10.2017	109.139
