Adsorption isotherm of Methane on CuBTC
DOI: 10.1021/Jp407176j
Adsorbate Methane: InChIKey VNWKTOKETHGBQD-UHFFFAOYSA-N
Temperature: 298 K
Tabular data in the source: 0
pressure (bar)	uptake (molecules/unitcell)
0.0998022	1.86706
0.152101	2.23715
0.198278	2.73062
0.250048	3.10072
0.50627	3.34745
0.603195	3.71754
0.74996	4.33437
1.01538	4.70447
1.51844	5.93813
1.99825	7.41852
5.05412	10.1326
7.66624	10.0092
10.0887	10.8728
