Adsorption isotherm of Carbon Dioxide on CuBTC
DOI: 10.1021/Jp407176j
Adsorbate Carbon Dioxide: InChIKey CURLTUGMZLYLDI-UHFFFAOYSA-N
Temperature: 298 K
Tabular data in the source: 0
pressure (bar)	uptake (molecules/unitcell)
0.104348	2.84223
0.149327	4.05287
0.198648	5.43646
0.280526	6.82005
0.370713	9.06839
0.489894	10.9708
0.701061	14.6028
0.951372	18.2347
1.32579	23.7691
1.69483	28.7846
1.98749	33.4542
2.2397	38.2968
2.67928	46.2524
3.12115	53.8622
3.6359	59.7424
3.98994	64.9309
4.74145	72.3677
5.45059	79.6316
6.06126	87.2413
6.83043	93.8134
7.69719	101.596
8.8484	108.687
9.83976	113.875
