Adsorption isotherm of Carbon Dioxide on CuBTC
DOI: 10.1021/Jp407176j
Adsorbate Carbon Dioxide: InChIKey CURLTUGMZLYLDI-UHFFFAOYSA-N
Temperature: 298 K
Tabular data in the source: 0
pressure (bar)	uptake (molecules/unitcell)
0.0995211	5.67182
0.15171	5.67182
0.199922	8.06874
0.251612	9.86644
0.505449	16.8575
0.598297	19.2544
0.752989	23.0495
1.00761	28.2429
1.52427	36.4324
2.00867	45.4209
3.35704	58.8037
5.07839	70.1891
7.68237	80.376
10.1238	87.1673
