Adsorption isotherm of Carbon Dioxide on CuBTC
DOI: 10.1021/Jp407176j
Adsorbate Carbon Dioxide: InChIKey CURLTUGMZLYLDI-UHFFFAOYSA-N
Temperature: 298 K
Tabular data in the source: 0
pressure (bar)	uptake (molecules/unitcell)
0.100274	5.78236
0.147358	7.6848
0.194732	9.76019
0.248936	11.4897
0.493156	19.6183
0.609851	23.5961
0.749171	26.7092
0.996615	32.9354
1.47433	41.4099
2.06824	51.095
4.90144	86.2036
7.44595	99.0019
10.1718	107.13
