Adsorption isotherm of Carbon Dioxide on CuBTC
DOI: 10.1021/Jp407176j
Adsorbate Carbon Dioxide: InChIKey CURLTUGMZLYLDI-UHFFFAOYSA-N
Temperature: 298 K
Tabular data in the source: 0
pressure (bar)	uptake (molecules/unitcell)
0.100274	6.12826
0.149327	8.20365
0.199971	10.1061
0.250594	12.3544
0.506424	21.0019
0.597828	23.2502
0.749171	28.4387
0.996615	34.4919
1.51399	44.177
2.00073	53.1704
3.14193	69.4276
4.96694	86.7225
7.59569	99.1748
10.0376	107.303
