Adsorption isotherm of Carbon Dioxide on CuBTC
DOI: 10.1021/Jp407176j
Adsorbate Carbon Dioxide: InChIKey CURLTUGMZLYLDI-UHFFFAOYSA-N
Temperature: 298 K
Tabular data in the source: 0
pressure (bar)	uptake (molecules/unitcell)
0.0987612	4.87284
0.148261	7.46951
0.199922	8.86772
0.2555	10.8652
0.501589	19.2544
0.60754	22.2506
0.747239	25.846
0.992281	32.4375
1.51263	39.6283
1.97811	50.2147
5.03961	82.1737
7.62371	92.7602
10.2802	99.5515
