Adsorption isotherm of Carbon Dioxide on CuBTC
DOI: 10.1021/Jp407176j
Adsorbate Carbon Dioxide: InChIKey CURLTUGMZLYLDI-UHFFFAOYSA-N
Temperature: 298 K
Tabular data in the source: 0
pressure (bar)	uptake (molecules/unitcell)
0.100844	4.49454
0.160199	6.9416
0.21233	9.73824
0.295947	12.8845
0.412491	16.0307
0.530467	19.5265
0.731965	25.1198
1.01	32.1113
1.22278	39.4525
1.49535	47.4929
1.79225	56.2324
2.02225	63.5735
2.44828	74.4105
3.0243	86.9954
3.48178	96.7836
4.21528	108.32
5.2597	121.254
6.17841	127.896
8.107	137.335
10.218	144.326
