Adsorption isotherm of Nitrogen on CuBTC
DOI: 10.1021/Jp407176j
Adsorbate Nitrogen: InChIKey IJGRMHOSHXDMSA-UHFFFAOYSA-N
Temperature: 298 K
Tabular data in the source: 0
pressure (bar)	uptake (molecules/unitcell)
0.100218	0.365871
0.152983	0.507176
0.2037	0.683806
0.24923	0.966415
0.509882	1.95555
0.599959	2.30881
0.743674	2.87402
1.00974	3.6512
1.54136	5.24087
2.03904	6.61859
5.07082	13.6485
7.5417	18.4175
10.1735	22.1621
