Adsorption isotherm of Methane on CuBTC
DOI: 10.1021/Jp407176j
Adsorbate Methane: InChIKey VNWKTOKETHGBQD-UHFFFAOYSA-N
Temperature: 298 K
Tabular data in the source: 0
pressure (bar)	uptake (molecules/unitcell)
0.0993308	0.756763
0.150668	1.12686
0.199219	1.37359
0.250048	1.62032
0.50627	2.73062
0.59751	2.73062
0.760688	3.10072
1.0202	3.96428
1.51844	4.33437
2.00774	5.56803
5.03025	8.40545
7.4869	8.89891
10.1847	9.26901
