Adsorption isotherm of Carbon Dioxide on CuBTC
DOI: 10.1021/Jp407176j
Adsorbate Carbon Dioxide: InChIKey CURLTUGMZLYLDI-UHFFFAOYSA-N
Temperature: 298 K
Tabular data in the source: 0
pressure (bar)	uptake (molecules/unitcell)
0.100844	10.0878
0.149304	13.5836
0.201912	17.7786
0.249418	21.2744
0.50444	34.5584
0.604596	38.0542
0.754397	44.3466
1.01	54.1349
1.52575	67.7685
2.02225	77.9063
3.51699	96.434
5.05222	108.669
7.55565	117.409
10.1157	124.051
