Adsorption isotherm of Methane on CuBTC
DOI: 10.1021/Jp407176j
Adsorbate Methane: InChIKey VNWKTOKETHGBQD-UHFFFAOYSA-N
Temperature: 298 K
Tabular data in the source: 0
pressure (bar)	uptake (molecules/unitcell)
0.100276	1.00349
0.149956	1.49696
0.202069	1.37359
0.253625	1.99042
0.518397	2.73062
0.608933	2.85398
0.746418	3.34745
0.996332	4.58111
1.48291	5.44467
2.04612	5.6914
5.00649	9.02228
7.41634	10.1326
10.3794	10.7494
