Adsorption isotherm of Carbon Dioxide on CuBTC
DOI: 10.1021/Jp407176j
Adsorbate Carbon Dioxide: InChIKey CURLTUGMZLYLDI-UHFFFAOYSA-N
Temperature: 298 K
Tabular data in the source: 0
pressure (bar)	uptake (molecules/unitcell)
0.100274	10.279
0.151322	13.0462
0.199971	14.7757
0.253943	17.024
0.503074	24.4609
0.605817	27.401
0.749171	30.1682
1.00993	35.5296
1.50398	44.6959
2.00073	51.6138
5.03331	88.452
7.59569	104.536
10.0376	113.184
