Adsorption isotherm of Nitrogen on CuBTC
DOI: 10.1021/Jp407176j
Adsorbate Nitrogen: InChIKey IJGRMHOSHXDMSA-UHFFFAOYSA-N
Temperature: 298 K
Tabular data in the source: 0
pressure (bar)	uptake (molecules/unitcell)
0.100873	0.259893
0.133443	0.330545
0.166488	0.542502
0.226052	0.683806
0.317077	1.07239
0.436157	1.49631
0.537128	1.74359
0.674514	2.23815
0.819924	2.62674
0.93389	3.01533
1.10605	3.58055
1.30994	4.18109
1.65574	5.17022
1.89819	5.73544
2.3837	7.39576
2.93553	9.12674
3.59166	10.7164
4.33763	12.0235
5.34179	13.9664
6.20421	15.768
7.20588	17.5697
8.36926	19.6539
9.59477	21.5968
10.0419	22.2327
