Adsorption isotherm of Methane on CuBTC
DOI: 10.1021/Jp407176j
Adsorbate Methane: InChIKey VNWKTOKETHGBQD-UHFFFAOYSA-N
Temperature: 298 K
Tabular data in the source: 0
pressure (bar)	uptake (molecules/unitcell)
0.100844	1.545
0.161819	2.38617
0.23718	2.98702
0.34764	4.30886
0.456155	5.39038
0.586619	6.11138
0.724637	7.43323
0.941313	9.11559
1.19842	10.5576
1.54117	12.8408
1.96212	15.2442
2.49804	18.4887
2.99402	21.7332
3.96833	25.0979
4.66148	28.2223
5.36662	31.1063
6.30401	35.0719
7.2576	38.7971
8.107	41.6811
9.14739	45.2862
10.218	49.4921
