Adsorption isotherm of Methane on CuBTC
DOI: 10.1021/Jp407176j
Adsorbate Methane: InChIKey VNWKTOKETHGBQD-UHFFFAOYSA-N
Temperature: 298 K
Tabular data in the source: 0
pressure (bar)	uptake (molecules/unitcell)
0.101059	0.478474
0.149402	1.27745
0.20146	1.27745
0.251612	1.87668
0.501589	2.47591
0.602901	2.47591
0.758783	3.27489
1.00761	3.87412
1.51263	5.27233
2.0397	6.67054
5.03961	9.86644
7.56549	10.6654
10.2802	11.2646
