Adsorption isotherm of Methane on CuBTC
DOI: 10.1021/Jp407176j
Adsorbate Methane: InChIKey VNWKTOKETHGBQD-UHFFFAOYSA-N
Temperature: 298 K
Tabular data in the source: 0
pressure (bar)	uptake (molecules/unitcell)
0.0998344	2.02567
0.149304	2.62651
0.19789	3.70802
0.246921	4.30886
0.50444	7.31307
0.754397	8.99542
0.999891	10.7979
1.49535	14.1626
1.98196	17.0467
5.00164	30.9862
7.40513	39.0374
10.1157	47.329
