Adsorption isotherm of Nitrogen on CuBTC
DOI: 10.1021/Jp407176j
Adsorbate Nitrogen: InChIKey IJGRMHOSHXDMSA-UHFFFAOYSA-N
Temperature: 298 K
Tabular data in the source: 0
pressure (bar)	uptake (molecules/unitcell)
0.099427	1.3624
0.151713	1.58485
0.200224	1.80729
0.247858	1.69607
0.501268	1.80729
0.59969	1.91852
0.742358	1.80729
1.00944	2.25219
1.50134	2.36341
2.01552	2.36341
5.00303	3.36443
7.56912	3.25321
9.98937	3.47566
