Adsorption isotherm of Carbon Dioxide on CuBTC
DOI: 10.1021/Jp407176j
Adsorbate Carbon Dioxide: InChIKey CURLTUGMZLYLDI-UHFFFAOYSA-N
Temperature: 298 K
Tabular data in the source: 0
pressure (bar)	uptake (molecules/unitcell)
0.102291	3.70697
0.15233	5.60941
0.199971	8.54954
0.250594	10.1061
0.506424	17.5429
0.593873	19.9642
0.759182	24.6338
1.00993	29.4764
1.49403	38.1238
2.00073	45.5606
3.07999	59.0507
4.93408	73.4054
6.47721	81.1881
7.64628	86.3766
10.1718	92.7757
