Adsorption isotherm of Nitrogen on CuBTC
DOI: 10.1021/Jp407176j
Adsorbate Nitrogen: InChIKey IJGRMHOSHXDMSA-UHFFFAOYSA-N
Temperature: 298 K
Tabular data in the source: 0
pressure (bar)	uptake (molecules/unitcell)
0.101139	0.250156
0.152362	0.695053
0.202805	0.806277
0.248919	0.695053
0.507728	1.02873
0.604831	1.47362
0.758372	1.25117
1.00086	1.69607
1.53373	2.25219
2.00694	2.36341
5.02443	3.25321
7.56912	3.47566
9.94683	3.25321
