Adsorption isotherm of Nitrogen on CuBTC
DOI: 10.1021/Jp407176j
Adsorbate Nitrogen: InChIKey IJGRMHOSHXDMSA-UHFFFAOYSA-N
Temperature: 298 K
Tabular data in the source: 0
pressure (bar)	uptake (molecules/unitcell)
0.104207	0.361381
0.128998	0.361381
0.16453	0.138932
0.199372	0.138932
0.227577	0.138932
0.295262	0.250156
0.428037	0.806277
0.543614	0.917501
0.681615	1.25117
0.836601	1.3624
1.12792	1.69607
1.67756	1.80729
2.21396	2.69709
3.0105	2.91953
3.79088	3.58688
4.75322	4.03178
5.73525	4.143
6.71647	4.36545
8.20855	4.36545
10.0321	4.5879
