Adsorption isotherm of Methane on CuBTC
DOI: 10.1021/Jp407176j
Adsorbate Methane: InChIKey VNWKTOKETHGBQD-UHFFFAOYSA-N
Temperature: 298 K
Tabular data in the source: 0
pressure (bar)	uptake (molecules/unitcell)
0.101059	0.478474
0.154054	1.07771
0.206147	1.67694
0.257466	1.87668
0.497759	2.27617
0.612215	3.27489
0.752989	3.67438
1.01536	3.87412
1.52427	4.07386
2.02413	5.07258
5.03961	8.06874
7.62371	8.86772
10.0464	8.66798
