Adsorption isotherm of Carbon Dioxide on CuBTC
DOI: 10.1021/Jp407176j
Adsorbate Carbon Dioxide: InChIKey CURLTUGMZLYLDI-UHFFFAOYSA-N
Temperature: 298 K
Tabular data in the source: 0
pressure (bar)	uptake (molecules/unitcell)
0.0996107	4.74467
0.151322	6.993
0.198648	8.37659
0.248936	10.452
0.499746	18.5806
0.597828	20.656
0.749171	25.6715
1.00325	32.0706
1.49403	43.1393
1.98749	50.5762
3.68448	72.7136
5.03331	83.7824
7.49553	97.9642
9.97124	108.687
