Adsorption isotherm of Methane on CuBTC
DOI: 10.1021/Jp407176j
Adsorbate Methane: InChIKey VNWKTOKETHGBQD-UHFFFAOYSA-N
Temperature: 298 K
Tabular data in the source: 0
pressure (bar)	uptake (molecules/unitcell)
0.10171	0.756763
0.127058	1.00349
0.164849	1.12686
0.199219	1.25023
0.239617	1.62032
0.312363	1.74369
0.405271	1.86706
0.528307	2.36052
0.682207	2.97735
0.852222	3.47081
1.11622	3.96428
1.46894	5.07457
1.9149	5.93813
2.64217	7.78862
3.57726	10.0092
4.42665	10.626
5.93681	12.3532
7.34645	13.2167
8.96259	13.9569
10.233	14.9438
