Adsorption isotherm of Carbon Dioxide on CuBTC
DOI: 10.1021/Jp407176j
Adsorbate Carbon Dioxide: InChIKey CURLTUGMZLYLDI-UHFFFAOYSA-N
Temperature: 298 K
Tabular data in the source: 0
pressure (bar)	uptake (molecules/unitcell)
0.0998344	9.73824
0.150813	12.8845
0.199891	16.0307
0.25194	20.2256
0.49939	31.7618
0.598543	37.0055
0.746844	41.55
0.989881	49.2408
1.49535	67.7685
2.00201	76.508
3.48178	93.6374
5.15492	111.816
7.55565	119.506
10.1157	125.799
