Adsorption isotherm of Nitrogen on CuBTC
DOI: 10.1021/Jp407176j
Adsorbate Nitrogen: InChIKey IJGRMHOSHXDMSA-UHFFFAOYSA-N
Temperature: 298 K
Tabular data in the source: 0
pressure (bar)	uptake (molecules/unitcell)
0.100218	0.401198
0.151991	0.577828
0.198466	0.789785
0.247613	1.07239
0.493559	1.95555
0.596068	2.20283
0.768268	2.73272
1.02296	3.29794
1.50176	4.78163
2.01268	6.19468
3.47668	10.1865
5.00525	12.6947
6.53575	15.3088
7.5417	16.8985
10.0419	20.7843
