Adsorption isotherm of Nitrogen on CuBTC
DOI: 10.1021/Jp407176j
Adsorbate Nitrogen: InChIKey IJGRMHOSHXDMSA-UHFFFAOYSA-N
Temperature: 298 K
Tabular data in the source: 0
pressure (bar)	uptake (molecules/unitcell)
0.101531	0.330545
0.146171	0.47185
0.202379	0.577828
0.24923	0.789785
0.496781	1.70826
0.592201	2.06152
0.743674	2.69739
0.996681	3.36859
1.52143	4.92294
2.02582	6.23
5.03793	13.2952
7.5417	18.0289
10.1075	22.4447
