Adsorption isotherm of Nitrogen on CuBTC
DOI: 10.1021/Jp407176j
Adsorbate Nitrogen: InChIKey IJGRMHOSHXDMSA-UHFFFAOYSA-N
Temperature: 298 K
Tabular data in the source: 0
pressure (bar)	uptake (molecules/unitcell)
0.100708	0.361381
0.151067	0.695053
0.197677	0.361381
0.249983	0.583829
0.501268	0.917501
0.59969	0.806277
0.739196	1.02873
1.00086	0.806277
1.52069	1.25117
2.00694	1.3624
5.02443	2.36341
7.44099	2.80831
10.0321	2.58586
