Adsorption isotherm of Carbon Dioxide on CuBTC
DOI: 10.1021/Jp407176j
Adsorbate Carbon Dioxide: InChIKey CURLTUGMZLYLDI-UHFFFAOYSA-N
Temperature: 298 K
Tabular data in the source: 0
pressure (bar)	uptake (molecules/unitcell)
0.100844	15.3315
0.152339	19.8761
0.19789	21.9735
0.25194	26.5181
0.49939	38.7534
0.61071	42.2492
0.762026	48.8912
1.01	56.5819
1.49535	72.313
2.00201	84.8979
3.37825	103.076
5.05222	118.108
7.70924	127.197
10.1157	133.14
