Adsorption isotherm of Carbon Dioxide on CuBTC
DOI: 10.1021/Jp407176j
Adsorbate Carbon Dioxide: InChIKey CURLTUGMZLYLDI-UHFFFAOYSA-N
Temperature: 298 K
Tabular data in the source: 0
pressure (bar)	uptake (molecules/unitcell)
0.0995211	4.47335
0.150551	7.66926
0.198395	8.66798
0.251612	10.6654
0.509338	19.2544
0.598297	20.8524
0.758783	24.4477
1.02318	29.0419
1.51263	39.2288
2.02413	49.6155
3.35704	67.1929
5.11747	80.5758
7.56549	95.5566
10.2802	99.9509
