Adsorption isotherm of Methane on CuBTC
DOI: 10.1021/Jp407176j
Adsorbate Methane: InChIKey VNWKTOKETHGBQD-UHFFFAOYSA-N
Temperature: 298 K
Tabular data in the source: 0
pressure (bar)	uptake (molecules/unitcell)
0.100844	1.66517
0.150813	2.86685
0.193947	3.10718
0.249418	3.70802
0.49939	6.23155
0.592551	7.43323
0.746844	8.39458
0.979971	10.3173
1.45089	13.682
1.92303	17.1668
5.00164	31.4668
7.55565	40.7198
9.91414	48.6509
