Adsorption isotherm of Carbon Dioxide on CuBTC
DOI: 10.1021/Jp407176j
Adsorbate Carbon Dioxide: InChIKey CURLTUGMZLYLDI-UHFFFAOYSA-N
Temperature: 298 K
Tabular data in the source: 0
pressure (bar)	uptake (molecules/unitcell)
0.101059	10.4657
0.150551	13.6616
0.199922	15.0598
0.251612	17.4567
0.501589	22.65
0.602901	26.0457
0.752989	29.6411
0.992281	34.8344
1.51263	43.0239
2.00867	51.6129
3.13325	67.1929
5.03961	83.9714
7.74149	96.9548
10.1238	106.742
