Adsorption isotherm of Methane on CuBTC
DOI: 10.1021/Jp407176j
Adsorbate Methane: InChIKey VNWKTOKETHGBQD-UHFFFAOYSA-N
Temperature: 298 K
Tabular data in the source: 0
pressure (bar)	uptake (molecules/unitcell)
0.100844	2.02567
0.150813	2.74668
0.201912	3.34752
0.25194	4.06853
0.49939	6.47189
0.592551	7.43323
0.739367	8.63491
0.989881	10.5576
1.49535	13.8021
2.0427	16.4458
3.18034	23.8963
5.05222	31.1063
7.48001	40.3593
9.91414	47.9299
