Adsorption isotherm of Methane on CuBTC
DOI: 10.1021/Jp407176j
Adsorbate Methane: InChIKey VNWKTOKETHGBQD-UHFFFAOYSA-N
Temperature: 298 K
Tabular data in the source: 0
pressure (bar)	uptake (molecules/unitcell)
0.100844	1.9055
0.149304	2.74668
0.201912	3.34752
0.249418	3.94836
0.509542	6.71222
0.592551	7.5534
0.739367	9.23575
0.97016	10.6778
1.48038	14.2828
1.96212	17.5274
3.2125	25.5786
5.00164	33.029
6.24089	38.3164
7.48001	43.003
8.6115	46.7282
9.91414	50.9341
