Adsorption isotherm of Nitrogen on CuBTC
DOI: 10.1021/Jp407176j
Adsorbate Nitrogen: InChIKey IJGRMHOSHXDMSA-UHFFFAOYSA-N
Temperature: 298 K
Tabular data in the source: 0
pressure (bar)	uptake (molecules/unitcell)
0.100218	0.259893
0.147125	0.542502
0.202379	0.719132
0.255802	0.966415
0.500024	1.99087
0.603876	2.34413
0.748529	2.73272
0.983794	3.68652
1.52143	5.31152
2.02582	6.79522
2.62811	8.84413
3.56837	11.3523
4.97279	14.143
5.8513	16.0153
7.5417	19.1947
8.36926	20.8903
9.9768	23.8577
