Adsorption isotherm of Nitrogen on CuBTC
DOI: 10.1021/Jp407176j
Adsorbate Nitrogen: InChIKey IJGRMHOSHXDMSA-UHFFFAOYSA-N
Temperature: 298 K
Tabular data in the source: 0
pressure (bar)	uptake (molecules/unitcell)
0.100873	0.365871
0.146171	0.577828
0.202379	0.719132
0.254143	0.931089
0.493559	1.74359
0.596068	2.23815
0.748529	2.66207
1.00974	3.58055
1.52143	5.06424
1.99962	6.54794
3.36538	10.2572
5.07082	13.6485
7.5417	18.3822
10.0419	22.7273
