Adsorption isotherm of Carbon Dioxide on CuBTC
DOI: 10.1021/Jp407176j
Adsorbate Carbon Dioxide: InChIKey CURLTUGMZLYLDI-UHFFFAOYSA-N
Temperature: 298 K
Tabular data in the source: 0
pressure (bar)	uptake (molecules/unitcell)
0.101836	5.67182
0.15171	7.869
0.198395	10.2659
0.253549	12.2634
0.505449	20.6526
0.612215	23.2493
0.752989	27.6436
0.999917	33.2365
1.51263	41.6257
2.02413	51.4132
3.28072	69.3901
5.03961	83.5719
7.62371	95.3568
10.1238	102.348
