Adsorption isotherm of Carbon Dioxide on CuBTC
DOI: 10.1021/Jp407176j
Adsorbate Carbon Dioxide: InChIKey CURLTUGMZLYLDI-UHFFFAOYSA-N
Temperature: 298 K
Tabular data in the source: 0
pressure (bar)	uptake (molecules/unitcell)
0.101864	7.64076
0.152339	10.4374
0.201912	14.2828
0.249418	16.7298
0.489441	28.6155
0.61071	32.1113
0.746844	37.355
0.999891	46.0945
1.51047	57.6307
2.06336	67.7685
5.00164	93.987
7.55565	102.027
10.218	106.572
