Adsorption isotherm of Nitrogen on CuBTC
DOI: 10.1021/Jp407176j
Adsorbate Nitrogen: InChIKey IJGRMHOSHXDMSA-UHFFFAOYSA-N
Temperature: 298 K
Tabular data in the source: 0
pressure (bar)	uptake (molecules/unitcell)
0.100279	-0.0835159
0.150424	-0.305964
0.197677	-0.0835159
0.249983	-0.0835159
0.503412	-0.305964
0.602255	0.0277082
0.751925	0.138932
0.988129	0.472605
1.49495	0.806277
1.96456	0.583829
4.9605	1.58485
7.50478	1.47362
9.94683	1.3624
