Adsorption isotherm of Carbon Dioxide, Methane on Wet Fruitland Coal
DOI: 10.2118/29194-ms
Article source: Table 6
Adsorbate Carbon Dioxide: InChIKey CURLTUGMZLYLDI-UHFFFAOYSA-N
Adsorbate Methane: InChIKey VNWKTOKETHGBQD-UHFFFAOYSA-N
Kind: experiment
Temperature: 115 K
Tabular data in the source: 0
pressure (bar)	Carbon Dioxide fraction	Carbon Dioxide uptake (mmol/g)	Methane fraction	Methane uptake (mmol/g)	total uptake (mmol/g)
6.62586	0.6659	0.372	0.3341	0.0412	
13.7688	0.6989	0.565	0.3011	0.06	
27.7859	0.7295	0.778	0.2705	0.0777	
41.21	0.744	0.906	0.256	0.0837	
55.034	0.7556	1	0.2444	0.092	
69.1682	0.764	1.08	0.236	0.1	
82.7095	0.7689	1.17	0.2311	0.103	
96.5749	0.7743	1.27	0.2257	0.119	
108.613	0.7785	1.38	0.2215	0.147	
119.148	0.7826	1.47	0.2174	0.183	
