Adsorption isotherm of Carbon Dioxide on Wet Fruitland Coal
DOI: 10.2118/29194-ms
Article source: Table 4
Adsorbate Carbon Dioxide: InChIKey CURLTUGMZLYLDI-UHFFFAOYSA-N
Kind: experiment
Temperature: 115 K
Tabular data in the source: 0
pressure (bar)	uptake (mmol/g)
6.66723	0.509
14.8168	0.764
22.7941	0.904
29.4751	0.996
36.3423	1.06
43.7886	1.132
49.1389	1.168
58.6744	1.23
69.5061	1.292
82.6406	1.472
89.3078	1.636
102.649	4.2
124.161	5.964
