Adsorption isotherm of Nitrogen, Methane on Wet Fruitland Coal
DOI: 10.2118/29194-ms
Article source: Table 5
Adsorbate Nitrogen: InChIKey IJGRMHOSHXDMSA-UHFFFAOYSA-N
Adsorbate Methane: InChIKey VNWKTOKETHGBQD-UHFFFAOYSA-N
Kind: experiment
Temperature: 115 K
Tabular data in the source: 0
pressure (bar)	Nitrogen fraction	Nitrogen uptake (mmol/g)	Methane fraction	Methane uptake (mmol/g)	total uptake (mmol/g)
7.08092	0.4762	0.0302	0.5238	0.109	
14.7479	0.4695	0.0486	0.5305	0.195	
27.6135	0.4572	0.0713	0.5428	0.295	
41.4237	0.449	0.0891	0.551	0.376	
55.3511	0.4427	0.107	0.5573	0.443	
69.0855	0.437	0.124	0.563	0.493	
82.8267	0.4335	0.137	0.5665	0.54	
96.4577	0.4305	0.149	0.5695	0.578	
110.44	0.4283	0.162	0.5717	0.619	
123.83	0.4262	0.177	0.5738	0.656	
