Adsorption isotherm of Carbon Dioxide, Methane on Wet Fruitland Coal
DOI: 10.2118/29194-ms
Article source: Table 6
Adsorbate Carbon Dioxide: InChIKey CURLTUGMZLYLDI-UHFFFAOYSA-N
Adsorbate Methane: InChIKey VNWKTOKETHGBQD-UHFFFAOYSA-N
Kind: experiment
Temperature: 115 K
Tabular data in the source: 0
pressure (bar)	Carbon Dioxide fraction	Carbon Dioxide uptake (mmol/g)	Methane fraction	Methane uptake (mmol/g)	total uptake (mmol/g)
7.41186	0.4316	0.282	0.5684	0.0908	
13.6378	0.4629	0.384	0.5371	0.111	
27.3308	0.492	0.579	0.508	0.154	
41.5754	0.5197	0.681	0.4803	0.188	
55.4201	0.5314	0.774	0.4686	0.205	
69.1958	0.5412	0.848	0.4588	0.222	
83.2128	0.5492	0.904	0.4508	0.233	
96.3473	0.5554	0.973	0.4446	0.261	
110.013	0.5605	1.05	0.4395	0.298	
123.506	0.5646	1.13	0.4354	0.333	
