Adsorption isotherm of Nitrogen on Wet Fruitland Coal
DOI: 10.2118/29194-ms
Article source: Table 3
Adsorbate Nitrogen: InChIKey IJGRMHOSHXDMSA-UHFFFAOYSA-N
Kind: experiment
Temperature: 115 K
Tabular data in the source: 0
pressure (bar)	uptake (mmol/g)
8.04618	0.069
15.0513	0.122
27.9031	0.198
41.7064	0.259
55.7579	0.316
69.0717	0.356
82.8198	0.395
96.6852	0.432
110.316	0.47
124.016	0.501
