Adsorption isotherm of Carbon Dioxide, Nitrogen on Wet Fruitland Coal
DOI: 10.2118/29194-ms
Article source: Table 7
Adsorbate Carbon Dioxide: InChIKey CURLTUGMZLYLDI-UHFFFAOYSA-N
Adsorbate Nitrogen: InChIKey IJGRMHOSHXDMSA-UHFFFAOYSA-N
Kind: experiment
Temperature: 115 K
Tabular data in the source: 0
pressure (bar)	Carbon Dioxide fraction	Carbon Dioxide uptake (mmol/g)	Nitrogen fraction	Nitrogen uptake (mmol/g)	total uptake (mmol/g)
7.24639	0.3283	0.25	0.6717	0.0194	
13.755	0.3727	0.396	0.6273	0.0322	
27.124	0.4244	0.595	0.5756	0.0459	
41.4306	0.458	0.737	0.542	0.057	
55.5442	0.4815	0.832	0.5185	0.0663	
69.5061	0.4992	0.903	0.5008	0.0769	
83.2335	0.512	0.956	0.488	0.0816	
96.9817	0.5225	1.01	0.4775	0.0949	
110.633	0.5313	1.04	0.4687	0.102	
124.016	0.5384	1.08	0.4616	0.115	
