Adsorption isotherm of Carbon Dioxide, Nitrogen on Wet Fruitland Coal
DOI: 10.2118/29194-ms
Article source: Table 7
Adsorbate Carbon Dioxide: InChIKey CURLTUGMZLYLDI-UHFFFAOYSA-N
Adsorbate Nitrogen: InChIKey IJGRMHOSHXDMSA-UHFFFAOYSA-N
Kind: experiment
Temperature: 115 K
Tabular data in the source: 0
pressure (bar)	Carbon Dioxide fraction	Carbon Dioxide uptake (mmol/g)	Nitrogen fraction	Nitrogen uptake (mmol/g)	total uptake (mmol/g)
7.20502	0.0919	0.112	0.9081	0.0338	
14.4652	0.1183	0.195	0.8817	0.0628	
27.2826	0.1438	0.31	0.8562	0.0939	
41.3341	0.1626	0.407	0.8374	0.121	
55.8889	0.1774	0.487	0.8226	0.144	
69.4716	0.1881	0.548	0.8119	0.161	
83.0818	0.1962	0.605	0.8038	0.18	
96.8989	0.2052	0.641	0.7948	0.196	
110.695	0.2124	0.675	0.7876	0.215	
124.175	0.2175	0.714	0.7825	0.239	
