Adsorption isotherm of Carbon Dioxide, Methane on Wet Fruitland Coal
DOI: 10.2118/29194-ms
Article source: Table 6
Adsorbate Carbon Dioxide: InChIKey CURLTUGMZLYLDI-UHFFFAOYSA-N
Adsorbate Methane: InChIKey VNWKTOKETHGBQD-UHFFFAOYSA-N
Kind: experiment
Temperature: 115 K
Tabular data in the source: 0
pressure (bar)	Carbon Dioxide fraction	Carbon Dioxide uptake (mmol/g)	Methane fraction	Methane uptake (mmol/g)	total uptake (mmol/g)
7.43255	0.0965	0.0863	0.9035	0.164	
14.2446	0.1141	0.135	0.8859	0.255	
27.6135	0.1323	0.201	0.8677	0.368	
42.4234	0.1443	0.25	0.8557	0.45	
55.2132	0.1535	0.277	0.8465	0.51	
69.113	0.1551	0.321	0.8449	0.55	
82.7854	0.1598	0.343	0.8402	0.583	
96.8576	0.1636	0.366	0.8364	0.624	
110.061	0.1656	0.393	0.8344	0.663	
124.14	0.1692	0.405	0.8308	0.706	
