Adsorption isotherm of Methane on Wet Fruitland Coal
DOI: 10.2118/29194-ms
Article source: Table 2
Adsorbate Methane: InChIKey VNWKTOKETHGBQD-UHFFFAOYSA-N
Kind: experiment
Temperature: 115 K
Tabular data in the source: 0
pressure (bar)	uptake (mmol/g)
7.61871	0.22
14.279	0.329
26.924	0.479
42.651	0.592
55.7027	0.662
69.244	0.72
83.33	0.773
96.7265	0.811
110.268	0.852
123.464	0.887
