Adsorption isotherm of Carbon Dioxide, Methane on Wet Fruitland Coal
DOI: 10.2118/29194-ms
Article source: Table 6
Adsorbate Carbon Dioxide: InChIKey CURLTUGMZLYLDI-UHFFFAOYSA-N
Adsorbate Methane: InChIKey VNWKTOKETHGBQD-UHFFFAOYSA-N
Kind: experiment
Temperature: 115 K
Tabular data in the source: 0
pressure (bar)	Carbon Dioxide fraction	Carbon Dioxide uptake (mmol/g)	Methane fraction	Methane uptake (mmol/g)	total uptake (mmol/g)
7.17744	0.2362	0.175	0.7638	0.125	
13.9757	0.2674	0.27	0.7326	0.189	
27.6273	0.2911	0.404	0.7089	0.254	
41.3272	0.3118	0.487	0.6882	0.301	
55.4752	0.3223	0.563	0.6777	0.329	
69.2992	0.3354	0.606	0.6646	0.368	
82.937	0.3426	0.644	0.6574	0.38	
96.499	0.3454	0.71	0.6546	0.403	
110.185	0.3516	0.75	0.6484	0.447	
124.126	0.3566	0.784	0.6434	0.483	
