Adsorption isotherm of Carbon Dioxide, Nitrogen on Wet Fruitland Coal
DOI: 10.2118/29194-ms
Article source: Table 7
Adsorbate Carbon Dioxide: InChIKey CURLTUGMZLYLDI-UHFFFAOYSA-N
Adsorbate Nitrogen: InChIKey IJGRMHOSHXDMSA-UHFFFAOYSA-N
Kind: experiment
Temperature: 115 K
Tabular data in the source: 0
pressure (bar)	Carbon Dioxide fraction	Carbon Dioxide uptake (mmol/g)	Nitrogen fraction	Nitrogen uptake (mmol/g)	total uptake (mmol/g)
7.30155	0.1483	0.155	0.8517	0.0245	
13.9964	0.1823	0.258	0.8177	0.0447	
27.2136	0.2189	0.414	0.7811	0.0736	
41.2444	0.2443	0.533	0.7557	0.0912	
55.2753	0.2643	0.62	0.7357	0.108	
69.182	0.2791	0.689	0.7209	0.121	
82.9991	0.2923	0.739	0.7077	0.138	
96.63	0.3022	0.783	0.6978	0.152	
110.344	0.3105	0.821	0.6895	0.166	
123.988	0.3178	0.855	0.6822	0.187	
