Adsorption isotherm of Nitrogen, Methane on Wet Fruitland Coal
DOI: 10.2118/29194-ms
Article source: Table 5
Adsorbate Nitrogen: InChIKey IJGRMHOSHXDMSA-UHFFFAOYSA-N
Adsorbate Methane: InChIKey VNWKTOKETHGBQD-UHFFFAOYSA-N
Kind: experiment
Temperature: 115 K
Tabular data in the source: 0
pressure (bar)	Nitrogen fraction	Nitrogen uptake (mmol/g)	Methane fraction	Methane uptake (mmol/g)	total uptake (mmol/g)
10.4869	0.6883	0.0455	0.3117	0.104	
17.1473	0.6796	0.0658	0.3204	0.152	
27.7376	0.6688	0.0906	0.3312	0.211	
34.6117	0.6644	0.105	0.3356	0.246	
41.5961	0.6582	0.122	0.3418	0.273	
55.296	0.6514	0.144	0.3486	0.32	
69.0165	0.6462	0.166	0.3538	0.362	
82.9922	0.6424	0.183	0.3576	0.399	
96.1612	0.6386	0.205	0.3614	0.429	
110.426	0.6357	0.224	0.3643	0.458	
123.761	0.6328	0.247	0.3672	0.481	
