Adsorption isotherm of Nitrogen, Methane on Wet Fruitland Coal
DOI: 10.2118/29194-ms
Article source: Table 5
Adsorbate Nitrogen: InChIKey IJGRMHOSHXDMSA-UHFFFAOYSA-N
Adsorbate Methane: InChIKey VNWKTOKETHGBQD-UHFFFAOYSA-N
Kind: experiment
Temperature: 115 K
Tabular data in the source: 0
pressure (bar)	Nitrogen fraction	Nitrogen uptake (mmol/g)	Methane fraction	Methane uptake (mmol/g)	total uptake (mmol/g)
7.18434	0.2529	0.0171	0.7471	0.159	
13.7481	0.2448	0.0264	0.7552	0.253	
27.7859	0.2358	0.0377	0.7642	0.39	
41.21	0.2302	0.0457	0.7698	0.485	
55.6269	0.2259	0.0523	0.7741	0.561	
69.4509	0.2212	0.0619	0.7788	0.61	
82.8543	0.2186	0.0694	0.7814	0.659	
96.6852	0.217	0.0741	0.783	0.705	
110.426	0.2158	0.08	0.7842	0.756	
124.106	0.2147	0.0865	0.7853	0.802	
