Adsorption isotherm of Carbon Dioxide, Nitrogen on Wet Fruitland Coal
DOI: 10.2118/29194-ms
Article source: Table 7
Adsorbate Carbon Dioxide: InChIKey CURLTUGMZLYLDI-UHFFFAOYSA-N
Adsorbate Nitrogen: InChIKey IJGRMHOSHXDMSA-UHFFFAOYSA-N
Kind: experiment
Temperature: 115 K
Tabular data in the source: 0
pressure (bar)	Carbon Dioxide fraction	Carbon Dioxide uptake (mmol/g)	Nitrogen fraction	Nitrogen uptake (mmol/g)	total uptake (mmol/g)
8.37024	0.6071	0.416	0.3929	0.0753	
14.2721	0.6495	0.57	0.3505	0.0137	
27.124	0.6937	0.776	0.3063	0.0182	
41.4513	0.7244	0.906	0.2756	0.0299	
55.7993	0.7398	1.01	0.2602	0.0342	
69.0993	0.7527	1.08	0.2473	0.0464	
83.199	0.7584	1.15	0.2416	0.0386	
96.0853	0.7655	1.2	0.2345	0.0481	
109.937	0.7726	1.21	0.2274	0.0608	
123.561	0.7738	1.36	0.2262	0.0625	
