Adsorption isotherm of Carbon Dioxide, Nitrogen on Wet Fruitland Coal
DOI: 10.2118/29194-ms
Article source: Table 7
Adsorbate Carbon Dioxide: InChIKey CURLTUGMZLYLDI-UHFFFAOYSA-N
Adsorbate Nitrogen: InChIKey IJGRMHOSHXDMSA-UHFFFAOYSA-N
Kind: experiment
Temperature: 115 K
Tabular data in the source: 0
pressure (bar)	Carbon Dioxide fraction	Carbon Dioxide uptake (mmol/g)	Nitrogen fraction	Nitrogen uptake (mmol/g)	total uptake (mmol/g)
7.21881	0.0519	0.0701	0.9481	0.0369	
14.2928	0.0658	0.126	0.9342	0.0699	
27.9307	0.0825	0.212	0.9175	0.116	
41.4099	0.0945	0.278	0.9055	0.15	
55.4959	0.1043	0.337	0.8957	0.187	
69.2785	0.1119	0.383	0.8881	0.211	
83.0956	0.118	0.423	0.882	0.234	
96.7059	0.1227	0.461	0.8773	0.258	
110.447	0.128	0.487	0.872	0.28	
123.961	0.1317	0.516	0.8683	0.306	
