Adsorption isotherm of Nitrogen, Methane on Wet Fruitland Coal
DOI: 10.2118/29194-ms
Article source: Table 5
Adsorbate Nitrogen: InChIKey IJGRMHOSHXDMSA-UHFFFAOYSA-N
Adsorbate Methane: InChIKey VNWKTOKETHGBQD-UHFFFAOYSA-N
Kind: experiment
Temperature: 115 K
Tabular data in the source: 0
pressure (bar)	Nitrogen fraction	Nitrogen uptake (mmol/g)	Methane fraction	Methane uptake (mmol/g)	total uptake (mmol/g)
8.63224	0.8609	0.0535	0.1391	0.0446	
14.7617	0.8563	0.0822	0.1437	0.0698	
27.4342	0.8485	0.127	0.1515	0.11	
41.3065	0.8434	0.167	0.1566	0.148	
55.6407	0.8386	0.202	0.1614	0.177	
69.6922	0.835	0.231	0.165	0.201	
83.2266	0.8328	0.255	0.1672	0.223	
96.9679	0.83	0.28	0.17	0.239	
110.44	0.828	0.312	0.172	0.257	
124.175	0.8267	0.335	0.1733	0.275	
