Adsorption isotherm of Hydrogen on CPM-15-Co
DOI: 10.1021/Ja209800x
Adsorbate Hydrogen: InChIKey UFHFLCQGNIYNRP-UHFFFAOYSA-N
Temperature: 77 K
Tabular data in the source: 0
pressure (bar)	uptake (wt%)
0.00522811	0.0766876
0.0105299	0.115019
0.0158224	0.158144
0.0371306	0.258728
0.0558248	0.320969
0.0772343	0.368813
0.104001	0.42622
0.128126	0.459668
0.149553	0.497922
0.173678	0.53137
0.195124	0.560036
0.221946	0.588676
0.243402	0.612547
0.264857	0.636418
0.286303	0.665084
0.310456	0.684147
0.334599	0.708006
0.356055	0.731877
0.377519	0.750953
0.401672	0.770017
0.449976	0.808145
0.468753	0.827234
0.492897	0.851092
0.517058	0.865362
0.560006	0.893925
0.584158	0.912989
0.608311	0.932053
0.629776	0.95113
0.651249	0.965412
0.672733	0.974899
0.696876	0.998757
0.745208	1.0225
0.790834	1.05585
0.831104	1.07963
0.857944	1.09868
0.903589	1.12244
0.925062	1.13672
0.970698	1.16527
1.00829	1.18427
