Adsorption isotherm of Carbon Dioxide on CPM-15-Mg
DOI: 10.1021/Ja209800x
Adsorbate Carbon Dioxide: InChIKey CURLTUGMZLYLDI-UHFFFAOYSA-N
Temperature: 298 K
Tabular data in the source: 0
pressure (bar)	uptake (cm3(STP)/g)
0.0295839	2.07716
0.0542372	3.80813
0.0838212	5.54244
0.113405	7.27675
0.142989	9.01105
0.175038	10.4042
0.204622	12.1385
0.234206	13.5299
0.26379	14.9214
0.295839	17.0002
0.325423	17.7059
0.357473	19.4419
0.387057	21.1762
0.414175	21.8803
0.44869	23.6179
0.483204	25.0127
0.512788	25.7185
0.544838	27.1116
0.579352	28.5064
0.611401	29.5566
0.643451	30.6069
0.677965	31.6588
0.710015	32.7091
0.776578	34.8113
0.811093	36.206
0.848073	36.9168
0.880122	37.6242
0.914637	38.6761
0.949151	39.3852
0.986131	40.4388
1.02311	41.4924
