Adsorption isotherm of Nitrogen on CPM-15-Mg
DOI: 10.1021/Ja209800x
Adsorbate Nitrogen: InChIKey IJGRMHOSHXDMSA-UHFFFAOYSA-N
Temperature: 273 K
Tabular data in the source: 0
pressure (bar)	uptake (cm3(STP)/g)
0.0345146	0.0233577
0.0616332	0.0417101
0.0986131	0.0667362
0.120801	0.0817518
0.140524	0.0950991
0.197226	0.47633
0.246533	0.509698
0.303235	0.890928
0.342681	0.917623
0.399383	0.955996
0.463482	0.999374
0.502927	1.02607
0.562095	1.06611
0.608936	1.09781
0.626193	1.10949
0.685361	0.806674
0.702619	0.818352
0.746995	0.848384
0.79137	1.22127
0.82835	1.2463
0.867796	1.27299
0.909706	1.30136
0.954082	1.33139
0.993527	1.35808
