Adsorption isotherm of Nitrogen on CPM-15-Ni
DOI: 10.1021/Ja209800x
Adsorbate Nitrogen: InChIKey IJGRMHOSHXDMSA-UHFFFAOYSA-N
Temperature: 77 K
Tabular data in the source: 0
pressure (bar)	uptake (cm3(STP)/g)
0.00256519	0.00256519
0.00513038	53.8966
0.0179563	57.9601
0.0205215	61.688
0.0307823	64.0575
0.0487386	66.4244
0.0589994	68.4548
0.0743905	70.1446
0.0820861	71.159
0.102608	72.847
0.120564	73.858
0.141085	75.207
0.161607	76.5561
0.182128	77.2272
0.200085	78.2381
0.264215	80.5896
0.302692	82.6106
0.346301	84.2909
0.384778	85.634
0.425822	86.9762
0.466865	88.6574
0.487386	89.3285
0.505342	90.0004
0.523299	90.6724
0.546385	91.6816
0.566907	92.3527
0.584863	93.0247
0.610515	93.3551
0.628472	94.027
0.646428	95.038
0.669515	95.3692
0.687471	95.7022
0.710558	96.7114
0.725949	96.3673
0.749035	97.0375
0.790078	98.0408
0.825991	98.7067
0.849078	99.377
0.869599	100.048
0.892686	101.057
0.913208	102.067
0.931164	103.078
0.951685	104.088
0.969642	105.099
0.990163	106.448
