Adsorption isotherm of Nitrogen on CPM-15-Co
DOI: 10.1021/Ja209800x
Adsorbate Nitrogen: InChIKey IJGRMHOSHXDMSA-UHFFFAOYSA-N
Temperature: 77 K
Tabular data in the source: 0
pressure (bar)	uptake (cm3(STP)/g)
0.00214672	50.3178
0.0025503	12.7775
0.00456821	75.0763
0.00984055	84.6568
0.0285857	91.0318
0.0607778	96.5975
0.082245	99.7754
0.0983625	100.561
0.117159	102.144
0.154744	106.108
0.176228	107.689
0.195033	108.472
0.213822	110.854
0.23261	113.235
0.254102	114.017
0.270211	115.602
0.31051	117.167
0.34271	121.934
0.388367	125.093
0.425969	127.46
0.466258	129.824
0.506539	132.987
0.541436	136.953
0.560241	137.737
0.603219	140.1
0.624703	141.68
0.640812	143.265
0.6596	145.646
0.699881	148.809
0.718678	150.392
0.777738	156.735
0.815314	161.498
0.834085	165.477
0.858231	169.451
0.876968	176.625
0.895644	189.39
0.914235	210.142
0.940923	227.693
0.954301	233.273
