Adsorption isotherm of Hydrogen on CPM-15-Mg
DOI: 10.1021/Ja209800x
Adsorbate Hydrogen: InChIKey UFHFLCQGNIYNRP-UHFFFAOYSA-N
Temperature: 77 K
Tabular data in the source: 0
pressure (bar)	uptake (cm3(STP)/g)
0.00493066	4.80334
0.00739599	8.91929
0.0123266	13.7226
0.014792	17.8386
0.0246533	23.331
0.0369799	29.5107
0.0468412	33.9746
0.0567026	38.4384
0.0690292	42.561
0.0788905	46.3391
0.0912172	49.4332
0.103544	52.5272
0.128197	58.0296
0.150385	62.5018
0.175038	66.9756
0.197226	70.0763
0.219414	73.1771
0.241602	75.9349
0.26379	78.6928
0.285978	80.765
0.310631	83.1816
0.330354	84.9093
0.355007	86.9831
0.377195	88.3696
0.401849	90.1005
0.426502	91.8315
0.443759	93.2146
0.470878	94.6044
0.493066	95.648
0.515254	97.0344
0.534976	98.762
0.55963	99.4644
0.581818	100.508
0.606471	101.553
0.628659	102.597
0.653312	103.299
0.6755	104.686
0.697688	105.386
0.744529	107.132
0.788905	108.534
0.833281	109.935
0.855469	110.979
0.90231	112.039
0.946686	113.441
0.973805	114.488
1.01078	115.541
