Adsorption isotherm of Carbon Dioxide on CPM-15-Ni
DOI: 10.1021/Ja209800x
Adsorbate Carbon Dioxide: InChIKey CURLTUGMZLYLDI-UHFFFAOYSA-N
Temperature: 273 K
Tabular data in the source: 0
pressure (bar)	uptake (cm3(STP)/g)
0.0102608	1.3525
0.0282171	3.71937
0.0487386	6.42437
0.0692601	7.77344
0.0872165	9.80133
0.110303	11.1495
0.128259	12.1605
0.153911	13.8468
0.174433	15.1959
0.187259	15.8696
0.205215	17.2195
0.230867	18.5668
0.251389	19.2379
0.279606	20.9234
0.305258	21.5928
0.325779	22.9419
0.353996	24.2884
0.369387	24.6222
0.384778	25.634
0.4053	26.3051
0.438647	27.3109
0.466865	28.3184
0.500212	29.3242
0.530994	30.6698
0.551516	31.3409
0.574603	32.0112
0.597689	32.3424
0.636167	34.0245
0.669515	34.6913
0.705427	35.6962
0.731079	37.0436
0.761861	37.7112
0.784948	37.7035
0.802904	38.3755
0.828556	39.0448
0.856773	39.7134
0.887556	40.381
0.918338	41.3877
0.94912	42.0554
0.979903	42.723
1.01068	43.3907
