Adsorption isotherm of Carbon Dioxide on CPM-15-Co
DOI: 10.1021/Ja209800x
Adsorbate Carbon Dioxide: InChIKey CURLTUGMZLYLDI-UHFFFAOYSA-N
Temperature: 273 K
Tabular data in the source: 0
pressure (bar)	uptake (cm3(STP)/g)
0.0214586	3.97669
0.0429257	7.15466
0.0644015	9.5339
0.0939317	12.7055
0.118112	13.4852
0.144963	15.8602
0.171815	18.2352
0.198683	19.0127
0.230918	20.5847
0.25509	22.1631
0.284629	24.536
0.311497	25.3136
0.341044	26.8877
0.3706	27.6631
0.39746	29.2394
0.427016	30.0148
0.459243	32.3856
0.488807	32.3623
0.515667	33.9386
0.545223	34.714
0.574779	35.4894
0.607023	36.2627
0.636579	37.0381
0.666135	37.8136
0.695682	39.3877
0.727926	40.161
0.75749	40.1377
0.789717	42.5085
0.819281	42.4852
0.846158	42.464
0.878385	44.8347
0.910628	45.6081
0.940202	44.786
0.969749	46.3602
1.00469	46.3326
