Adsorption isotherm of Nitrogen on CPM-15-Mg
DOI: 10.1021/Ja209800x
Adsorbate Nitrogen: InChIKey IJGRMHOSHXDMSA-UHFFFAOYSA-N
Temperature: 77 K
Tabular data in the source: 0
pressure (bar)	uptake (cm3(STP)/g)
0.000754001	83.2097
0.00455924	17.5389
0.00467903	11.6937
0.00480588	5.50469
0.00555987	88.7144
0.00792757	93.1859
0.0127827	96.2837
0.0225777	98.3534
0.0323728	100.423
0.0421817	101.805
0.0544431	103.533
0.0790151	104.581
0.101121	105.971
0.123233	107.018
0.14536	107.377
0.182235	108.089
0.201903	108.446
0.22157	108.804
0.241244	108.817
0.263372	109.176
0.283046	109.189
0.319929	109.558
0.364196	109.588
0.383864	109.945
0.401079	109.957
0.442887	109.985
0.479777	110.01
0.524037	110.384
0.563387	110.411
0.605187	110.783
0.642078	110.808
0.683885	110.837
0.725694	110.865
0.762576	111.234
0.804378	111.606
0.848652	111.292
0.887994	111.663
0.946989	113.078
0.966636	114.467
0.988734	116.201
