Adsorption isotherm of Carbon Dioxide on CPM-15-Mg
DOI: 10.1021/Ja209800x
Adsorbate Carbon Dioxide: InChIKey CURLTUGMZLYLDI-UHFFFAOYSA-N
Temperature: 273 K
Tabular data in the source: 0
pressure (bar)	uptake (cm3(STP)/g)
0.0172573	3.09739
0.0369799	6.53931
0.0542372	9.29385
0.0764252	12.0517
0.0961478	14.8079
0.11587	17.5641
0.140524	20.6665
0.160246	22.737
0.182434	25.4949
0.207088	27.5687
0.22681	29.9821
0.251464	32.3987
0.276117	34.8154
0.298305	36.5447
0.325423	38.6202
0.350077	40.6941
0.377195	42.4267
0.406779	44.5039
0.431432	45.892
0.461016	47.6263
0.488135	49.0161
0.517719	50.4075
0.547303	52.1418
0.576887	53.1904
0.608936	54.5835
0.636055	55.9733
0.668104	56.6807
0.702619	58.0755
0.734668	59.1258
0.764252	59.8315
0.798766	61.2263
0.830816	61.9337
0.862865	62.9839
0.899845	63.6947
0.931894	64.4021
0.968874	65.1128
1.00092	66.1631
1.03297	66.8705
