Adsorption isotherm of Hydrogen on CPM-15-Ni
DOI: 10.1021/Ja209800x
Adsorbate Hydrogen: InChIKey UFHFLCQGNIYNRP-UHFFFAOYSA-N
Temperature: 77 K
Tabular data in the source: 0
pressure (bar)	uptake (wt%)
0.00256519	0.0321919
0.00513038	0.0594302
0.00769557	0.0866685
0.0153911	0.118848
0.0230867	0.158457
0.0384778	0.205479
0.0589994	0.252487
0.0820861	0.292059
0.105173	0.324201
0.128259	0.348912
0.148781	0.37363
0.176998	0.398329
0.218041	0.42795
0.241128	0.442754
0.264215	0.457558
0.287301	0.472363
0.312953	0.482207
0.333475	0.494541
0.356561	0.504392
0.379648	0.514242
0.402735	0.52657
0.425822	0.531467
0.448908	0.543794
0.46943	0.553651
0.495082	0.561019
0.515603	0.565922
0.541255	0.57329
0.564342	0.580664
0.587428	0.585561
0.60795	0.592941
0.631037	0.600315
0.654123	0.607689
0.674645	0.615069
0.697732	0.619966
0.743905	0.629761
0.790078	0.639555
0.836252	0.649349
0.856773	0.656729
0.905512	0.66404
0.928599	0.671414
0.951685	0.673835
0.974772	0.678732
0.995294	0.683635
1.01582	0.688539
