Adsorption isotherm of Carbon Dioxide on UTSA-16 WITH pva 2.0%
DOI: 10.1016/j.ces.2014.06.048
Article source: Figure 4
Adsorbate Carbon Dioxide: InChIKey CURLTUGMZLYLDI-UHFFFAOYSA-N
Kind: experiment
Temperature: 298 K
Tabular data in the source: 0
pressure (bar)	uptake (mmol/g)
0	0
0.003664	0.072507
0.005496	0.124305
0.007328	0.145014
0.014656	0.310754
0.016488	0.362552
0.021985	0.466131
0.027481	0.52826
0.032977	0.694016
0.045802	0.911522
0.064122	1.14971
0.084275	1.4915
0.11542	1.84356
0.163053	2.2473
0.223511	2.54729
0.298626	2.82644
0.404885	3.07422
0.511145	3.22875
0.65771	3.40365
0.877557	3.57791
1.16885	3.7412
