Adsorption isotherm of Carbon Dioxide on UTSA-16 WITH pva 2.0%
DOI: 10.1016/j.ces.2014.06.048
Article source: Figure 4
Adsorbate Carbon Dioxide: InChIKey CURLTUGMZLYLDI-UHFFFAOYSA-N
Kind: experiment
Temperature: 298 K
Tabular data in the source: 0
pressure (bar)	uptake (mmol/g)
0	0
0.003664	0.072507
0.005496	0.124305
0.007328	0.145014
0.014656	0.310754
0.016488	0.362552
0.021985	0.466131
0.027481	0.52826
0.036641	0.704347
0.049466	0.932215
0.065954	1.22223
0.084275	1.4915
0.111756	1.84359
0.155725	2.24736
0.218015	2.61988
0.30229	2.94039
0.412214	3.20888
0.505649	3.37387
0.655878	3.5591
0.877557	3.75408
1.16702	3.91738
