Adsorption isotherm of Carbon Dioxide on UTSA-16 WITH pva 4.6%
DOI: 10.1016/j.ces.2014.06.048
Article source: Figure 4
Adsorbate Carbon Dioxide: InChIKey CURLTUGMZLYLDI-UHFFFAOYSA-N
Kind: experiment
Temperature: 298 K
Tabular data in the source: 0
pressure (bar)	uptake (mmol/g)
0	0
0.003664	0.072507
0.005496	0.124305
0.007328	0.145014
0.012824	0.31077
0.016488	0.362552
0.021985	0.466131
0.027481	0.569711
0.036641	0.725072
0.049466	0.870039
0.067786	1.13931
0.091603	1.39817
0.11542	1.60522
0.161221	1.92607
0.219847	2.21572
0.298626	2.46374
0.406718	2.70115
0.509313	2.85571
0.655878	3.02024
0.877557	3.18413
1.16702	3.32671
