Adsorption isotherm of Carbon Dioxide on UTSA-16 WITH pva 6.7%
DOI: 10.1016/j.ces.2014.06.048
Article source: Figure 4
Adsorbate Carbon Dioxide: InChIKey CURLTUGMZLYLDI-UHFFFAOYSA-N
Kind: experiment
Temperature: 298 K
Tabular data in the source: 0
pressure (bar)	uptake (mmol/g)
0	0
0.003664	0.072507
0.005496	0.124305
0.007328	0.145014
0.012824	0.31077
0.016488	0.362552
0.021985	0.466131
0.027481	0.569711
0.036641	0.725072
0.049466	0.870039
0.067786	1.13931
0.091603	1.39817
0.120916	1.63626
0.163053	1.89496
0.221679	2.12244
0.298626	2.32903
0.401221	2.51467
0.490992	2.63825
0.65771	2.78189
0.877557	2.92506
1.16702	3.06764
