Adsorption isotherm of Carbon Dioxide on UTSA-16 WITH pva 0.0%
DOI: 10.1016/j.ces.2014.06.048
Article source: Figure 4
Adsorbate Carbon Dioxide: InChIKey CURLTUGMZLYLDI-UHFFFAOYSA-N
Kind: experiment
Temperature: 298 K
Tabular data in the source: 0
pressure (bar)	uptake (mmol/g)
0	0
0.003664	0.072507
0.005496	0.124305
0.007328	0.176103
0.014656	0.310754
0.016488	0.362552
0.021985	0.466131
0.025649	0.549001
0.032977	0.694016
0.045802	0.911522
0.056794	1.14977
0.084275	1.54331
0.120916	1.93678
0.157557	2.29916
0.221679	2.69239
0.304122	3.04401
0.410382	3.31252
0.507481	3.49821
0.655878	3.69382
0.875725	3.88881
1.16702	4.06246
