Adsorption isotherm of Carbon Dioxide on UTSA-16 WITH pva powder
DOI: 10.1016/j.ces.2014.06.048
Article source: Figure 4
Adsorbate Carbon Dioxide: InChIKey CURLTUGMZLYLDI-UHFFFAOYSA-N
Kind: experiment
Temperature: 298 K
Tabular data in the source: 0
pressure (bar)	uptake (mmol/g)
0	0
0.003664	0.072507
0.005496	0.124305
0.007328	0.176103
0.014656	0.310754
0.016488	0.362552
0.021985	0.466131
0.025649	0.549001
0.032977	0.683653
0.047634	0.952957
0.064122	1.26369
0.084275	1.60549
0.113588	1.97829
0.155725	2.42353
0.218015	2.85822
0.304122	3.2409
0.414046	3.51974
0.505649	3.69512
0.655878	3.90107
0.875725	4.12715
1.16519	4.30082
