Adsorption isotherm of Carbon Dioxide on UTSA-16 WITH pva 3.3%
DOI: 10.1016/j.ces.2014.06.048
Article source: Figure 4
Adsorbate Carbon Dioxide: InChIKey CURLTUGMZLYLDI-UHFFFAOYSA-N
Kind: experiment
Temperature: 298 K
Tabular data in the source: 0
pressure (bar)	uptake (mmol/g)
0	0
0.003664	0.072507
0.005496	0.124305
0.007328	0.145014
0.012824	0.31077
0.014656	0.362568
0.020153	0.466147
0.025649	0.569727
0.036641	0.725072
0.047634	0.921868
0.065954	1.22223
0.086107	1.51221
0.120916	1.91605
0.155725	2.20591
0.214351	2.55773
0.300458	2.87823
0.410382	3.15708
0.501985	3.30136
0.676031	3.51748
0.877557	3.68154
1.18718	3.85503
