Adsorption isotherm of Hydrogen on IRMOF-1
DOI: 10.1021/La803666t
Adsorbate Hydrogen: InChIKey UFHFLCQGNIYNRP-UHFFFAOYSA-N
Temperature: 298 K
Tabular data in the source: 0
pressure (bar)	uptake (mmol/g)
8.76397	0.692698
11.3019	0.871459
14.3008	1.09491
17.9899	1.40774
23.0647	1.78761
29.0624	2.23451
37.3686	2.81548
47.289	3.53053
60.2113	4.40199
75.904	5.42986
95.7551	6.6365
121.149	8.11127
