Adsorption isotherm of Hydrogen on IRMOF-1
DOI: 10.1021/La803666t
Adsorbate Hydrogen: InChIKey UFHFLCQGNIYNRP-UHFFFAOYSA-N
Temperature: 298 K
Tabular data in the source: 0
pressure (bar)	uptake (mmol/g)
2.77256	0.111726
4.84651	0.312831
6.92255	0.469247
10.1424	0.916149
27.6745	2.21217
44.7468	3.44115
61.5908	4.60309
77.9748	5.698
94.1264	6.81526
