Adsorption isotherm of Hydrogen on IRMOF-1
DOI: 10.1021/La803666t
Adsorbate Hydrogen: InChIKey UFHFLCQGNIYNRP-UHFFFAOYSA-N
Temperature: 298 K
Tabular data in the source: 0
pressure (bar)	uptake (mmol/g)
1.6162	0.0893804
2.07499	0.178761
3.45762	0.312831
4.38042	0.379867
6.2281	0.469247
14.9889	1.22898
20.0628	1.63119
29.9831	2.34624
40.1328	3.10597
59.7472	4.42433
80.0561	5.74269
99.9072	6.94933
119.531	8.06658
