Adsorption isotherm of Nitrogen on Carbon
DOI: 10.1021/La803666t
Adsorbate Nitrogen: InChIKey IJGRMHOSHXDMSA-UHFFFAOYSA-N
Temperature: 96 K
Tabular data in the source: 0
pressure (bar)	uptake (mol/l)
0.0638592	0.080391
0.188596	0.267118
0.274786	0.436188
0.417577	0.721494
0.541073	1.0385
0.646558	1.34494
0.799641	1.96838
0.916704	2.70807
1.00873	3.55435
1.01576	3.64852
1.01741	17.8196
1.0298	18.5042
1.09697	19.1971
1.11996	4.80031
1.2203	5.74076
1.22193	20.044
1.33093	6.44874
1.35315	20.6214
1.44542	7.09332
1.45625	20.9935
1.57535	7.68506
1.61715	21.4041
1.68083	8.22397
1.78117	8.68891
1.7921	21.7763
1.85964	9.16442
1.90853	9.63993
1.9111	12.7255
1.91707	22.0072
1.92268	15.0819
1.93168	22.0666
2.13622	22.3624
2.45911	22.7323
2.73826	22.9965
2.87977	23.1233
3.03542	23.2501
