Adsorption isotherm of Hydrogen on IRMOF-1
DOI: 10.1021/La803666t
Adsorbate Hydrogen: InChIKey UFHFLCQGNIYNRP-UHFFFAOYSA-N
Temperature: 298 K
Tabular data in the source: 0
pressure (bar)	uptake (mmol/g)
7.61074	0.603318
12.2237	0.960839
13.8368	1.11726
15.2204	1.22898
17.0671	1.34071
20.5257	1.63119
22.3713	1.76526
25.8321	2.01106
30.6776	2.34624
32.2906	2.50265
34.1362	2.63672
35.9818	2.77079
40.8283	3.08362
42.4414	3.24004
44.7458	3.46349
46.5956	3.50818
48.2107	3.61991
50.0563	3.75398
51.9019	3.88805
53.979	4.02212
55.8256	4.13384
57.6712	4.26791
59.2853	4.40199
61.8222	4.60309
63.671	4.67013
65.7491	4.78185
67.5947	4.91592
69.4403	5.04999
71.2869	5.16172
73.364	5.29579
75.2096	5.42986
80.2886	5.72035
82.1353	5.83207
84.2123	5.96614
86.059	6.07787
88.1371	6.18959
89.9827	6.32366
92.0608	6.43539
93.9074	6.54712
97.3703	6.74822
100.603	6.92698
102.449	7.03871
104.527	7.15043
106.606	7.26216
108.452	7.37388
110.53	7.48561
112.377	7.59733
114.455	7.70906
116.302	7.82079
118.38	7.93251
119.994	8.06658
122.074	8.13362
124.152	8.24534
126.231	8.33472
128.31	8.44645
130.156	8.55817
132.234	8.6699
134.312	8.78163
136.392	8.87101
138.47	8.98273
140.317	9.07211
142.396	9.18384
144.475	9.27322
146.321	9.38494
148.399	9.49667
