Adsorption isotherm of Nitrogen on TpPa-SO3Li
DOI: 10.1021/jacs.9b00543
Article source: Figure 2(e)
Adsorbate Nitrogen: InChIKey IJGRMHOSHXDMSA-UHFFFAOYSA-N
Kind: experiment
Temperature: 77 K
Tabular data in the source: 0
pressure (bar)	uptake (cm3(STP)/g)
0	4.91803
0	10.6557
0	16.3934
0	24.5902
0	31.1475
0	36.8853
0	45.082
0	50.8197
0	58.1967
0	64.7541
0.007295	72.9508
0.021896	77.8689
0.034055	81.1475
0.046224	82.7869
0.055952	84.4262
0.072984	86.0656
0.092449	88.5246
0.10704	89.3443
0.122857	90.1639
0.138663	91.8033
0.155696	93.4426
0.177592	93.4426
0.199489	95.082
0.216521	95.9016
0.248145	97.541
0.287064	98.3607
0.304097	99.1803
0.323561	100
0.355185	101.639
0.38924	103.689
0.420874	104.918
0.457361	106.557
0.493848	108.607
0.542504	111.475
0.564401	112.295
0.593592	114.754
0.63009	115.574
0.666577	118.033
0.700642	120.492
0.732266	123.361
0.75173	125.41
0.763889	127.049
0.802818	131.557
0.839305	137.705
0.856338	139.344
0.875803	144.262
0.904994	152.459
0.922017	159.016
0.93905	171.311
0.952435	180.738
0.973105	204.098
0.980411	215.574
0.99257	244.262
0.997433	266.393
0.999865	276.639
1.0096	311.885
0.007295	82.7869
0.042577	91.8033
0.076632	95.4918
0.109472	98.3607
0.138663	100
0.180024	101.639
0.214079	103.279
0.250577	104.918
0.2822	106.557
0.318698	108.197
0.352753	109.016
0.386808	110.656
0.420874	111.885
0.456145	113.934
0.491416	117.213
0.52305	119.672
0.557105	121.311
0.593592	122.951
0.627658	124.59
0.664145	127.049
0.69821	129.508
0.732266	131.967
0.75173	133.607
0.768753	136.066
0.800386	140.164
0.819841	143.443
0.838089	147.131
0.868497	154.918
0.907426	172.131
0.917153	177.869
0.93905	197.951
0.951219	216.393
0.970673	247.131
0.982842	270.492
0.99257	289.344
1.00839	312.295
