Adsorption isotherm of Hydrogen on MOF-69c
DOI: 10.3139/146.110994
Adsorbate Hydrogen: InChIKey UFHFLCQGNIYNRP-UHFFFAOYSA-N
Temperature: 77 K
Tabular data in the source: 0
pressure (bar)	uptake (wt%)
0.00784264	0.227692
0.0137854	0.369231
0.0197409	0.504615
0.0258116	0.584615
0.0380297	0.707692
0.0523141	0.836923
0.060515	0.892308
0.0810619	1.00923
0.10782	1.13846
0.116072	1.16923
0.151147	1.29846
0.198721	1.41538
0.233897	1.49538
0.316789	1.62462
0.354134	1.66154
0.474473	1.77846
0.594914	1.84615
0.721644	1.88923
0.840083	1.92
0.914902	1.93231
