Adsorption isotherm of Nitrogen on MOF-69c
DOI: 10.3139/146.110994
Adsorbate Nitrogen: InChIKey IJGRMHOSHXDMSA-UHFFFAOYSA-N
Temperature: 77 K
Tabular data in the source: 0
pressure (bar)	uptake (cm3(STP)/g)
0.000525348	228.297
0.000585733	220.055
0.00483079	240.659
0.00919661	244.78
0.0135564	249.725
0.0223182	253.846
0.0288881	257.143
0.0376681	258.791
0.0574199	262.912
0.088174	265.385
0.147496	268.681
0.200242	269.505
0.255186	270.33
0.303537	271.154
0.365081	271.154
0.417827	271.978
0.470579	271.978
0.523332	271.978
0.578282	271.978
0.628836	271.978
0.68378	272.802
0.784882	273.626
0.811259	273.626
0.828837	274.451
0.848619	274.451
0.874989	275.275
0.885973	276.099
0.896963	276.099
0.910138	277.747
0.921117	279.396
0.938688	281.044
0.967233	285.165
