Adsorption isotherm of Nitrogen on MOF-69c
DOI: 10.3139/146.110994
Adsorbate Nitrogen: InChIKey IJGRMHOSHXDMSA-UHFFFAOYSA-N
Temperature: 77 K
Tabular data in the source: 0
pressure (bar)	uptake (cm3(STP)/g)
0.00507233	207.692
0.016008	215.11
0.0225658	220.055
0.0379278	223.352
0.0598837	226.648
0.0884337	229.945
0.143359	233.242
0.200495	234.89
0.253242	235.714
0.301586	237.363
0.35653	238.187
0.407079	239.011
0.462023	239.835
0.514769	240.659
0.569719	240.659
0.622465	241.484
0.675211	242.308
0.727964	242.308
0.776308	243.956
0.804876	244.78
0.82685	245.604
0.848824	246.429
0.87299	248.077
0.890568	248.901
0.905948	249.725
0.923514	252.198
0.941086	253.846
0.965246	256.319
