Adsorption isotherm of Hydrogen on MOF-69c
DOI: 10.3139/146.110994
Adsorbate Hydrogen: InChIKey UFHFLCQGNIYNRP-UHFFFAOYSA-N
Temperature: 77 K
Tabular data in the source: 0
pressure (bar)	uptake (wt%)
0.0228178	0.0246154
0.0268991	0.0615385
0.0372173	0.0984615
0.0557492	0.184615
0.0617432	0.301538
0.0845866	0.313846
0.109279	0.436923
0.119533	0.504615
0.152541	0.627692
0.200154	0.726154
0.235228	0.855385
0.31817	0.96
0.357416	1.08308
0.473584	1.20615
0.598068	1.32923
0.720589	1.39692
0.841119	1.42154
0.918017	1.43385
