Adsorption isotherm of Hydrogen on MOF-69c
DOI: 10.3139/146.110994
Adsorbate Hydrogen: InChIKey UFHFLCQGNIYNRP-UHFFFAOYSA-N
Temperature: 77 K
Tabular data in the source: 0
pressure (bar)	uptake (wt%)
0.00379978	0.172308
0.0119111	0.270769
0.0240525	0.430769
0.0424948	0.56
0.0568559	0.652308
0.0877723	0.781538
0.118753	0.88
0.164235	1.00308
0.234639	1.13846
0.354927	1.28
0.481529	1.38462
0.599891	1.45231
0.72245	1.50154
0.840864	1.54462
0.913577	1.56923
