Adsorption isotherm of Nitrogen on MOF-69c
DOI: 10.3139/146.110994
Adsorbate Nitrogen: InChIKey IJGRMHOSHXDMSA-UHFFFAOYSA-N
Temperature: 77 K
Tabular data in the source: 0
pressure (bar)	uptake (cm3(STP)/g)
0.00209535	4.94505
0.00216178	14.011
0.00330909	25.5495
0.0034359	37.9121
0.00358686	54.3956
0.00371366	73.3516
0.0038586	93.1319
0.00399747	110.44
0.00411824	131.044
0.00420883	148.352
0.00528368	178.846
0.00531991	173.901
0.00537425	166.484
0.0140456	182.967
0.0184234	185.44
0.0293832	189.56
0.0381512	192.857
0.0601131	195.33
0.0886692	197.802
0.145799	200.275
0.200737	201.923
0.253477	203.571
0.30623	203.571
0.356784	203.571
0.407332	204.396
0.462282	204.396
0.517227	205.22
0.569972	206.044
0.622731	205.22
0.675477	206.044
0.728223	206.868
0.77658	206.868
0.805154	206.868
0.829325	207.692
0.846904	208.516
0.871082	208.516
0.882072	208.516
0.895254	209.341
0.908442	209.341
0.923816	210.989
0.941388	212.637
0.967691	222.527
