Adsorption isotherm of Carbon Dioxide on Zn-DABCO
DOI: 10.1016/j.seppur.2011.09.041
Adsorbate Carbon Dioxide: InChIKey CURLTUGMZLYLDI-UHFFFAOYSA-N
Temperature: 314 K
Tabular data in the source: 0
pressure (bar)	uptake (mmol/g)
0.969833	1.09373
1.57049	1.87458
2.55729	3.27612
4.6596	5.77887
7.74871	8.28162
13.2834	10.1637
18.818	11.0046
26.0688	11.6253
