Adsorption isotherm of Carbon Dioxide on Zn-DABCO
DOI: 10.1016/j.seppur.2011.09.041
Adsorbate Carbon Dioxide: InChIKey CURLTUGMZLYLDI-UHFFFAOYSA-N
Temperature: 294 K
Tabular data in the source: 0
pressure (bar)	uptake (mmol/g)
0.326268	0.793396
1.01274	1.89461
1.57049	3.51639
2.6002	6.11925
4.48798	9.06248
7.87742	11.0847
13.3263	12.266
18.818	12.7666
26.1547	13.0869
