Adsorption isotherm of Nitrogen on Zn-DABCO
DOI: 10.1016/j.seppur.2011.09.041
Adsorbate Nitrogen: InChIKey IJGRMHOSHXDMSA-UHFFFAOYSA-N
Temperature: 350 K
Tabular data in the source: 0
pressure (bar)	uptake (mmol/g)
0.126303	0.02823
0.886867	0.0733004
1.56292	0.129638
2.45025	0.202878
4.60518	0.38316
7.81644	0.653582
13.2671	1.04231
18.5911	1.39724
25.7319	1.82541
