Adsorption isotherm of Methane on Zn-DABCO
DOI: 10.1016/j.seppur.2011.09.041
Adsorbate Methane: InChIKey VNWKTOKETHGBQD-UHFFFAOYSA-N
Temperature: 350 K
Tabular data in the source: 0
pressure (bar)	uptake (mmol/g)
0.0840497	0.0451924
0.80236	0.157868
1.52067	0.315615
2.61926	0.529699
4.60518	0.90153
7.90095	1.48745
13.1826	2.32125
18.6333	3.00857
25.8587	3.77477
