Adsorption isotherm of Carbon Dioxide on Zn-DABCO
DOI: 10.1016/j.seppur.2011.09.041
Adsorbate Carbon Dioxide: InChIKey CURLTUGMZLYLDI-UHFFFAOYSA-N
Temperature: 350 K
Tabular data in the source: 0
pressure (bar)	uptake (mmol/g)
0.154651	0.092626
0.926928	0.493066
1.52759	0.793396
2.6431	1.41408
4.53089	2.41518
7.87742	4.13707
13.3263	6.19934
18.6893	7.56083
26.1976	8.64202
