Adsorption isotherm of Carbon monoxide on Zn-DABCO
DOI: 10.1016/j.seppur.2011.09.041
Adsorbate Carbon monoxide: InChIKey UGFAIRIUMAVXCW-UHFFFAOYSA-N
Temperature: 294 K
Tabular data in the source: 0
pressure (bar)	uptake (mmol/g)
0.591092	0.0986678
1.14039	0.26064
1.77419	0.408527
2.74602	0.655006
4.73194	1.10571
8.11222	1.78881
13.4784	2.73247
18.7601	3.50712
26.07	4.39444
