Adsorption isotherm of Methane on Zn-DABCO
DOI: 10.1016/j.seppur.2011.09.041
Adsorbate Methane: InChIKey VNWKTOKETHGBQD-UHFFFAOYSA-N
Temperature: 294 K
Tabular data in the source: 0
pressure (bar)	uptake (mmol/g)
0.422078	0.180404
1.01363	0.495897
1.64743	0.833925
2.74602	1.35223
4.64743	2.30998
7.9432	3.53815
13.1826	5.37477
18.6333	6.40012
26.0277	7.32407
