Adsorption isotherm of Methane on Zn-DABCO
DOI: 10.1016/j.seppur.2011.09.041
Adsorbate Methane: InChIKey VNWKTOKETHGBQD-UHFFFAOYSA-N
Temperature: 314 K
Tabular data in the source: 0
pressure (bar)	uptake (mmol/g)
1.73194	0.540967
2.70377	0.90153
4.56292	1.55505
7.81644	2.55787
13.2671	3.83111
18.5911	4.81139
25.8587	5.75787
