Adsorption isotherm of Carbon monoxide on Zn-DABCO
DOI: 10.1016/j.seppur.2011.09.041
Adsorbate Carbon monoxide: InChIKey UGFAIRIUMAVXCW-UHFFFAOYSA-N
Temperature: 350 K
Tabular data in the source: 0
pressure (bar)	uptake (mmol/g)
0.21081	0.021203
1.01363	0.10571
1.73194	0.190217
2.70377	0.316978
4.73194	0.535287
7.98546	0.859231
13.2671	1.35923
18.7601	1.76768
25.9855	2.29585
