Adsorption isotherm of Nitrogen on Zn-DABCO
DOI: 10.1016/j.seppur.2011.09.041
Adsorbate Nitrogen: InChIKey IJGRMHOSHXDMSA-UHFFFAOYSA-N
Temperature: 294 K
Tabular data in the source: 0
pressure (bar)	uptake (mmol/g)
0.464331	0.0902018
1.05588	0.19161
1.56292	0.30992
2.61926	0.501469
4.64743	0.862033
7.9432	1.41978
13.2671	2.19161
18.6756	2.86203
25.7319	3.61696
