Adsorption isotherm of Carbon monoxide on Zn-DABCO
DOI: 10.1016/j.seppur.2011.09.041
Adsorbate Carbon monoxide: InChIKey UGFAIRIUMAVXCW-UHFFFAOYSA-N
Temperature: 314 K
Tabular data in the source: 0
pressure (bar)	uptake (mmol/g)
1.64743	0.309935
2.61926	0.485992
4.64743	0.852189
7.8587	1.3381
13.2249	2.06346
18.5911	2.66205
26.1967	3.40853
