Adsorption isotherm of Nitrogen on Zn-DABCO
DOI: 10.1016/j.seppur.2011.09.041
Adsorbate Nitrogen: InChIKey IJGRMHOSHXDMSA-UHFFFAOYSA-N
Temperature: 314 K
Tabular data in the source: 0
pressure (bar)	uptake (mmol/g)
0.92912	0.163441
2.57701	0.377526
4.60518	0.66485
7.90095	1.07612
13.3517	1.69584
18.7179	2.20851
26.07	2.79443
