Adsorption isotherm of Hydrogen on M'MOF 1
DOI: 10.1021/Ja710144k
Adsorbate Hydrogen: InChIKey UFHFLCQGNIYNRP-UHFFFAOYSA-N
Temperature: 87 K
Tabular data in the source: 0
pressure (bar)	uptake (mmol/g)
0.00619484	0.260622
0.0236738	0.894236
0.0498923	1.4623
0.100144	1.93205
0.200649	2.39087
0.395102	2.87155
0.602665	3.1665
0.805859	3.38499
0.998128	3.52701
