Adsorption isotherm of Benzene on M'MOF 1
DOI: 10.1021/Ja710144k
Adsorbate Benzene: InChIKey UHOVQNZJYSORNB-UHFFFAOYSA-N
Temperature: 298 K
Tabular data in the source: 0
pressure (bar)	uptake (mmol/g)
0.00400996	0.0187264
0.0149343	1.18545
0.0302285	1.36242
0.0455226	1.63116
0.0804806	1.6836
0.159136	1.72948
0.233422	1.7557
0.316447	2.01133
0.475943	2.75856
0.631069	2.74545
0.86922	2.77167
