Adsorption isotherm of Methanol on M'MOF 1
DOI: 10.1021/Ja710144k
Adsorbate Methanol: InChIKey OKKJLVBELUTLKV-UHFFFAOYSA-N
Temperature: 298 K
Tabular data in the source: 0
pressure (bar)	uptake (mmol/g)
0.00619484	0.0131067
0.0149343	1.34369
0.0258587	1.81781
0.0345982	2.20017
0.0477074	2.47546
0.0630016	2.70487
0.115439	4.06605
0.180985	6.22252
0.475943	6.2684
0.836447	6.31428
