Adsorption isotherm of Hydrogen on M'MOF 1
DOI: 10.1021/Ja710144k
Adsorbate Hydrogen: InChIKey UFHFLCQGNIYNRP-UHFFFAOYSA-N
Temperature: 77 K
Tabular data in the source: 0
pressure (bar)	uptake (mmol/g)
0.00619484	1.15642
0.0127495	1.5934
0.0171192	2.01945
0.0498923	2.64214
0.102329	3.05726
0.196279	3.60348
0.401657	4.09508
0.600481	4.40096
0.805859	4.5976
1.00031	4.71777
