Adsorption isotherm of Deuterium on M'MOF 1
DOI: 10.1021/Ja710144k
Adsorbate Deuterium: InChIKey UFHFLCQGNIYNRP-VVKOMZTBSA-N
Temperature: 87 K
Tabular data in the source: 0
pressure (bar)	uptake (mmol/g)
0.00400996	0.206001
0.0127495	0.664824
0.0171192	1.04718
0.0520772	1.65894
0.100144	2.15054
0.200649	2.67491
0.403842	3.1665
0.700985	3.59256
1.0025	3.85474
