Adsorption isotherm of Deuterium on M'MOF 1
DOI: 10.1021/Ja710144k
Adsorbate Deuterium: InChIKey UFHFLCQGNIYNRP-VVKOMZTBSA-N
Temperature: 77 K
Tabular data in the source: 0
pressure (bar)	uptake (mmol/g)
0.00619484	1.29844
0.0127495	1.76819
0.0193041	2.23793
0.0477074	2.90432
0.0935898	3.37407
0.148212	3.71272
0.202833	3.93121
0.301153	4.24802
0.506531	4.60852
0.808044	4.9581
1.00468	5.10012
