Adsorption isotherm of Hydrogen on M'MOF 1
DOI: 10.1021/Ja710144k
Adsorbate Hydrogen: InChIKey UFHFLCQGNIYNRP-UHFFFAOYSA-N
Temperature: 87 K
Tabular data in the source: 0
pressure (bar)	uptake (mmol/g)
0.0182509	0.0243436
0.0400996	2.29224
0.105646	2.97392
0.477074	4.11443
0.979595	4.67812
2.02833	5.16317
3.01153	5.43846
5.06531	5.70065
8.03674	5.89728
9.98128	5.97594
