Adsorption isotherm of Hydrogen on Zr-MOF (100 eq)
DOI: 10.1016/j.ijhydene.2013.10.087
Adsorbate Hydrogen: InChIKey UFHFLCQGNIYNRP-UHFFFAOYSA-N
Temperature: 77 K
Tabular data in the source: 0
pressure (bar)	uptake (wt%)
0.0257101	0.21313
0.0570809	0.363006
0.0629713	0.394564
0.0727376	0.426092
0.0825039	0.45762
0.0922798	0.493098
0.102037	0.520675
0.113702	0.536386
0.123459	0.563963
0.220864	0.772576
0.246172	0.819783
0.320111	0.941668
0.360932	0.992704
0.491138	1.1418
0.605755	1.25546
0.724209	1.35329
0.844601	1.4511
0.928085	1.51365
