Adsorption isotherm of Hydrogen on Zr-MOF (0 eq)
DOI: 10.1016/j.ijhydene.2013.10.087
Adsorbate Hydrogen: InChIKey UFHFLCQGNIYNRP-UHFFFAOYSA-N
Temperature: 77 K
Tabular data in the source: 0
pressure (bar)	uptake (wt%)
0.0235616	0.126234
0.060507	0.1773
0.126483	0.212334
0.244794	0.250905
0.363047	0.265773
0.485157	0.27271
0.599515	0.279708
0.723572	0.290579
0.84761	0.29355
0.919334	0.300884
