Adsorption isotherm of Nitrogen on Zr-MOF
DOI: 10.1016/j.ijhydene.2013.10.087
Adsorbate Nitrogen: InChIKey IJGRMHOSHXDMSA-UHFFFAOYSA-N
Temperature: 77 K
Tabular data in the source: 0
pressure (bar)	uptake (cm3(STP)/g)
0.0182379	201.572
0.031134	206.863
0.039741	212.158
0.0655106	218.496
0.0891185	221.653
0.151341	226.89
0.207124	231.074
0.258606	233.139
0.307938	234.146
0.35512	234.095
0.410898	237.217
0.466658	237.156
0.51599	238.163
0.571761	240.224
0.623232	240.168
0.676853	241.171
0.730474	242.173
0.781945	242.117
0.807687	243.15
0.833428	244.183
0.852729	244.162
0.876326	245.197
0.891339	245.18
0.910646	246.22
0.925663	247.265
0.944988	251.488
0.966497	263.135
