Adsorption isotherm of Nitrogen on Zr-MOF (0 eq)
DOI: 10.1016/j.ijhydene.2013.10.087
Adsorbate Nitrogen: InChIKey IJGRMHOSHXDMSA-UHFFFAOYSA-N
Temperature: 77 K
Tabular data in the source: 0
pressure (bar)	uptake (cm3(STP)/g)
0.0109848	48.7944
0.0217307	53.0267
0.0367544	55.1323
0.0646288	54.0408
0.09037	55.0737
0.143991	56.0762
0.197613	57.0786
0.251234	58.0811
0.300554	56.9662
0.356326	59.0273
0.407797	58.9711
0.463563	59.9712
0.517184	60.9736
0.570805	61.9761
0.624409	59.7955
0.675892	61.8613
0.727358	60.7441
0.778834	61.7489
0.804575	62.7818
0.826021	62.7584
0.843178	62.7396
0.86678	64.8359
0.883937	64.8171
0.896805	64.8031
0.907528	64.7914
0.920402	65.8383
0.939726	70.0612
0.969791	77.4555
