Adsorption isotherm of Nitrogen on Zr-MOF (100 eq)
DOI: 10.1016/j.ijhydene.2013.10.087
Adsorbate Nitrogen: InChIKey IJGRMHOSHXDMSA-UHFFFAOYSA-N
Temperature: 77 K
Tabular data in the source: 0
pressure (bar)	uptake (cm3(STP)/g)
0.0143126	269.48
0.0164971	276.905
0.0165256	282.21
0.020866	291.754
0.0252121	302.36
0.0316745	307.658
0.0402985	316.136
0.07038	326.714
0.0897101	331.998
0.15195	340.418
0.179841	342.509
0.207727	343.54
0.250637	346.676
0.306414	349.798
0.357896	351.864
0.409372	352.869
0.462999	354.932
0.518765	355.932
0.570242	356.937
0.623864	357.939
0.675329	356.822
0.72895	357.825
0.776132	357.773
0.810458	359.858
0.831903	359.834
0.853355	360.872
0.872651	359.79
0.894098	359.766
0.906971	360.813
0.913405	360.806
0.926284	362.914
0.934863	362.905
0.947735	363.952
0.958459	363.94
0.969182	363.928
