Adsorption isotherm of Hydrogen on Zr-MOF
DOI: 10.1016/j.ijhydene.2013.10.087
Adsorbate Hydrogen: InChIKey UFHFLCQGNIYNRP-UHFFFAOYSA-N
Temperature: 77 K
Tabular data in the source: 0
pressure (bar)	uptake (wt%)
0.0295573	0.201248
0.0569852	0.3235
0.066742	0.351078
0.0726036	0.370784
0.0804224	0.398377
0.0921075	0.421988
0.101845	0.441664
0.119354	0.46918
0.224424	0.642177
0.24387	0.669678
0.360406	0.775424
0.482736	0.873223
0.603061	0.943383
0.725314	1.00958
0.851405	1.05994
0.925123	1.09096
