Adsorption isotherm of Nitrogen on Zn-MOF-74
DOI: 10.1016/j.micromeso.2014.02.028
Adsorbate Nitrogen: InChIKey IJGRMHOSHXDMSA-UHFFFAOYSA-N
Temperature: 77 K
Tabular data in the source: 0
pressure (bar)	uptake (cm3(STP)/g)
-0.000603575	206.204
-0.000497604	222.672
-0.000474567	226.252
0	0
0.000889237	138.187
0.000944526	146.779
0.00100442	156.087
0.00116568	181.147
0.0013638	211.935
0.00139606	216.947
0.0014836	230.551
0.00264007	110.266
0.00274143	126.018
0.00298562	163.966
0.00302709	170.41
0.00305474	174.706
0.00321139	199.05
0.0034648	238.43
0.00543218	244.161
0.0112652	250.613
0.0170798	254.201
0.0344775	257.806
0.0557224	259.268
0.0711758	260.722
0.103995	260.769
0.20246	262.342
0.297056	262.478
0.403225	261.198
0.501682	261.339
0.602055	259.335
0.798968	259.617
0.897406	256.894
0.949535	257.684
