Adsorption isotherm of Sulfur Hexafluoride on Mg-MOF-74
DOI: 10.1016/j.micromeso.2014.02.028
Adsorbate Sulfur Hexafluoride: InChIKey SFZCNBIFKDRMGX-UHFFFAOYSA-N
Temperature: 318 K
Tabular data in the source: 0
pressure (bar)	uptake (mmol/g)
0.0376513	0.446009
0.0574307	0.586854
0.0772101	0.7277
0.0989805	0.915493
0.122723	1.10329
0.15242	1.38498
0.176209	1.69014
0.197989	1.90141
0.247474	2.34742
0.300895	2.76995
0.401765	3.47418
0.494634	3.89671
0.599318	4.2723
0.705948	4.57746
0.800687	4.74178
0.903307	4.88263
0.952653	4.97653
0.998046	5.04695
