Adsorption isotherm of Nitrogen on Mg-MOF-74
DOI: 10.1016/j.micromeso.2014.02.028
Adsorbate Nitrogen: InChIKey IJGRMHOSHXDMSA-UHFFFAOYSA-N
Temperature: 318 K
Tabular data in the source: 0
pressure (bar)	uptake (mmol/g)
0.0377049	0.0221042
0.0557377	0.0258526
0.0786885	0.0332775
0.103279	0.044361
0.127869	0.0572694
0.152459	0.0701777
0.17541	0.0812522
0.203279	0.0905289
0.255738	0.118188
0.301639	0.142162
0.401639	0.195629
0.501639	0.243622
0.6	0.293431
0.701639	0.341432
0.795082	0.387564
0.901639	0.439243
0.952459	0.461419
0.996721	0.481734
