Adsorption isotherm of Sulfur Hexafluoride on MOF-74-Co
DOI: 10.1016/j.micromeso.2014.02.028
Adsorbate Sulfur Hexafluoride: InChIKey SFZCNBIFKDRMGX-UHFFFAOYSA-N
Temperature: 298 K
Tabular data in the source: 0
pressure (bar)	uptake (mmol/g)
0.0143149	0.2653
0.0204499	0.42001
0.0388548	0.641237
0.0490798	0.928529
0.0531697	1.10528
0.0817996	1.63588
0.100204	2.05584
0.124744	2.6526
0.147239	3.00641
0.171779	3.38234
0.202454	3.648
0.251534	3.98032
0.300613	4.26847
0.400818	4.60191
0.498978	4.80282
0.597137	5.00372
0.703476	5.13856
0.797546	5.20689
0.90184	5.29752
0.948875	5.34272
0.99591	5.36584
