Adsorption isotherm of Sulfur Hexafluoride on Mg-MOF-74
DOI: 10.1016/j.micromeso.2014.02.028
Adsorbate Sulfur Hexafluoride: InChIKey SFZCNBIFKDRMGX-UHFFFAOYSA-N
Temperature: 298 K
Tabular data in the source: 0
pressure (bar)	uptake (Molecules Adsorbed)
0.064833	0.139784
0.0785855	0.193184
0.104126	0.251643
0.129666	0.317736
0.151277	0.373661
0.178782	0.421937
0.202358	0.465134
0.255403	0.531157
0.302554	0.576838
0.40668	0.645276
0.502947	0.683199
0.601179	0.713483
0.70334	0.738668
0.799607	0.753691
0.901768	0.776331
0.950884	0.778751
0.998035	0.786265
