Adsorption isotherm of Sulfur Hexafluoride on Zn-MOF-74
DOI: 10.1016/j.micromeso.2014.02.028
Adsorbate Sulfur Hexafluoride: InChIKey SFZCNBIFKDRMGX-UHFFFAOYSA-N
Temperature: 318 K
Tabular data in the source: 0
pressure (bar)	uptake (Molecules Adsorbed)
0.00202024	1.82552e-05
0.0101073	0.00310338
0.0222531	0.0152613
0.0384454	0.0304679
0.050579	0.0366016
0.0627309	0.0517717
0.0769273	0.0790084
0.101213	0.100312
0.12349	0.127622
0.15184	0.161011
0.172091	0.18529
0.200442	0.218679
0.249031	0.270323
0.299634	0.318973
0.402794	0.383158
0.501871	0.426222
0.604964	0.457274
0.699958	0.479216
0.798992	0.501196
0.902049	0.514175
0.954593	0.523686
0.999051	0.530112
