Adsorption isotherm of Nitrogen on MOF-74-Co
DOI: 10.1016/j.micromeso.2014.02.028
Adsorbate Nitrogen: InChIKey IJGRMHOSHXDMSA-UHFFFAOYSA-N
Temperature: 308 K
Tabular data in the source: 0
pressure (bar)	uptake (mmol/g)
0.0578337	0.0343657
0.0764543	0.0397288
0.106293	0.0556145
0.128598	0.055789
0.149159	0.0742108
0.175247	0.0848498
0.195742	0.0928362
0.251653	0.116752
0.30197	0.138015
0.400844	0.196181
0.501495	0.241316
0.603989	0.283857
0.702814	0.334196
0.807167	0.376752
0.904133	0.427076
0.952576	0.445716
0.999176	0.46695
