Adsorption isotherm of Sulfur Hexafluoride on MOF-74-Co
DOI: 10.1016/j.micromeso.2014.02.028
Adsorbate Sulfur Hexafluoride: InChIKey SFZCNBIFKDRMGX-UHFFFAOYSA-N
Temperature: 308 K
Tabular data in the source: 0
pressure (bar)	uptake (Molecules Adsorbed)
0.0140845	0.0402522
0.0241449	0.053684
0.0402414	0.0778559
0.0482897	0.0993252
0.056338	0.118114
0.0784708	0.158387
0.0965795	0.209374
0.124748	0.268431
0.146881	0.324791
0.177062	0.373129
0.203219	0.421456
0.247485	0.480556
0.301811	0.537002
0.406439	0.601626
0.503018	0.642099
0.60161	0.671854
0.700201	0.693566
0.808853	0.709943
0.897384	0.718224
0.953722	0.731779
1.00201	0.731909
