Adsorption isotherm of Nitrogen on MOF-74-Co
DOI: 10.1016/j.micromeso.2014.02.028
Adsorbate Nitrogen: InChIKey IJGRMHOSHXDMSA-UHFFFAOYSA-N
Temperature: 318 K
Tabular data in the source: 0
pressure (bar)	uptake (mmol/g)
0.0803279	0.0223376
0.0967213	0.0279018
0.127869	0.0335467
0.15082	0.0446213
0.17541	0.0502303
0.2	0.0594891
0.247541	0.0743479
0.303279	0.0965508
0.396721	0.128084
0.496721	0.165128
0.6	0.200365
0.701639	0.233768
0.796721	0.267135
0.896721	0.302354
0.94918	0.31724
0.996721	0.332099
