Adsorption isotherm of Nitrogen on Mg-MOF-74
DOI: 10.1016/j.micromeso.2014.02.028
Adsorbate Nitrogen: InChIKey IJGRMHOSHXDMSA-UHFFFAOYSA-N
Temperature: 298 K
Tabular data in the source: 0
pressure (bar)	uptake (mmol/g)
0.0383912	0.0406962
0.0493601	0.0407406
0.0603291	0.0529473
0.0786106	0.0773457
0.0987203	0.0936435
0.127971	0.130249
0.151737	0.162777
0.175503	0.183144
0.202925	0.215688
0.248629	0.27263
0.299817	0.329594
0.402194	0.447576
0.500914	0.553382
0.603291	0.667311
0.700183	0.769055
0.802559	0.874875
0.903108	0.976634
0.95064	1.02548
0.998172	1.07026
