Adsorption isotherm of Sulfur Hexafluoride on Mg-MOF-74
DOI: 10.1016/j.micromeso.2014.02.028
Adsorbate Sulfur Hexafluoride: InChIKey SFZCNBIFKDRMGX-UHFFFAOYSA-N
Temperature: 298 K
Tabular data in the source: 0
pressure (bar)	uptake (mmol/g)
0.0797546	1.43709
0.106339	2.01181
0.128834	2.49811
0.151329	2.94025
0.173824	3.38239
0.204499	3.75846
0.251534	4.31155
0.306748	4.73233
0.402863	5.22025
0.503067	5.59786
0.599182	5.84288
0.697342	6.04379
0.801636	6.20067
0.899796	6.33533
0.95501	6.40279
0.997955	6.4479
