Adsorption isotherm of Sulfur Hexafluoride on Mg-MOF-74
DOI: 10.1016/j.micromeso.2014.02.028
Adsorbate Sulfur Hexafluoride: InChIKey SFZCNBIFKDRMGX-UHFFFAOYSA-N
Temperature: 308 K
Tabular data in the source: 0
pressure (bar)	uptake (Molecules Adsorbed)
0.0804829	0.128902
0.0985915	0.161122
0.124748	0.204088
0.152918	0.24974
0.177062	0.300743
0.201207	0.338341
0.249497	0.402814
0.301811	0.456573
0.400402	0.534586
0.501006	0.588475
0.599598	0.623591
0.698189	0.650665
0.802817	0.675075
0.905433	0.691435
0.949698	0.702278
0.98994	0.705067
