Adsorption isotherm of Sulfur Hexafluoride on Zn-MOF-74
DOI: 10.1016/j.micromeso.2014.02.028
Adsorbate Sulfur Hexafluoride: InChIKey SFZCNBIFKDRMGX-UHFFFAOYSA-N
Temperature: 318 K
Tabular data in the source: 0
pressure (bar)	uptake (mmol/g)
0.0197331	0.0234742
0.0414664	0.117371
0.0533378	0.211268
0.0632553	0.352113
0.0751266	0.446009
0.100805	0.539906
0.120621	0.774648
0.152263	0.985915
0.177978	1.17371
0.199739	1.33803
0.255114	1.71362
0.300581	1.97183
0.399348	2.34742
0.500051	2.62911
0.600707	2.79343
0.701345	2.9108
0.801993	3.05164
0.900649	3.14554
0.951931	3.14554
0.995351	3.21596
