Adsorption isotherm of Sulfur Hexafluoride on Mg-MOF-74
DOI: 10.1016/j.micromeso.2014.02.028
Adsorbate Sulfur Hexafluoride: InChIKey SFZCNBIFKDRMGX-UHFFFAOYSA-N
Temperature: 308 K
Tabular data in the source: 0
pressure (bar)	uptake (mmol/g)
0.0802636	0.937659
0.152436	2.02378
0.17811	2.3611
0.202169	2.71693
0.248712	3.29804
0.300121	3.74908
0.401393	4.4088
0.497905	4.8073
0.600882	5.11311
0.699049	5.34403
0.800441	5.55655
0.898638	5.67567
0.946926	5.75381
0.993614	5.79456
