Adsorption isotherm of Nitrogen on MOF-74-Co
DOI: 10.1016/j.micromeso.2014.02.028
Adsorbate Nitrogen: InChIKey IJGRMHOSHXDMSA-UHFFFAOYSA-N
Temperature: 298 K
Tabular data in the source: 0
pressure (bar)	uptake (mmol/g)
0.0639854	0.0326918
0.0767824	0.0408518
0.104205	0.0490711
0.122486	0.0694155
0.144424	0.0857206
0.171846	0.097994
0.195612	0.110252
0.255941	0.142929
0.303473	0.175555
0.402194	0.232712
0.500914	0.302031
0.603291	0.367311
0.702011	0.432576
0.798903	0.485671
0.90128	0.546897
0.95064	0.567367
0.998172	0.595939
