Adsorption isotherm of Sulfur Hexafluoride on Mg-MOF-74
DOI: 10.1016/j.micromeso.2014.02.028
Adsorbate Sulfur Hexafluoride: InChIKey SFZCNBIFKDRMGX-UHFFFAOYSA-N
Temperature: 318 K
Tabular data in the source: 0
pressure (bar)	uptake (Molecules Adsorbed)
0.127537	0.130671
0.200466	0.230727
0.249074	0.291407
0.299683	0.343069
0.398833	0.422279
0.49794	0.480403
0.60309	0.529546
0.706195	0.566622
0.803221	0.594607
0.906284	0.610599
0.954794	0.623085
0.993185	0.626444
