Adsorption isotherm of Nitrogen on Zn-MOF-74
DOI: 10.1016/j.micromeso.2014.02.028
Adsorbate Nitrogen: InChIKey IJGRMHOSHXDMSA-UHFFFAOYSA-N
Temperature: 308 K
Tabular data in the source: 0
pressure (bar)	uptake (mmol/g)
0.0520795	0.00562497
0.0632647	0.0109299
0.0818853	0.016293
0.100474	0.0164385
0.126529	0.0218598
0.152569	0.0246723
0.182359	0.0327315
0.202855	0.040718
0.24939	0.051517
0.2978	0.0649393
0.398355	0.0944219
0.500735	0.118701
0.599399	0.142952
0.701796	0.16984
0.800491	0.199308
0.902824	0.215761
0.954952	0.229213
0.999628	0.239997
