Adsorption isotherm of Sulfur Hexafluoride on Zn-MOF-74
DOI: 10.1016/j.micromeso.2014.02.028
Adsorbate Sulfur Hexafluoride: InChIKey SFZCNBIFKDRMGX-UHFFFAOYSA-N
Temperature: 308 K
Tabular data in the source: 0
pressure (bar)	uptake (Molecules Adsorbed)
0.0100604	0.0053889
0.0221328	0.024188
0.0321932	0.0376198
0.0462777	0.0483814
0.056338	0.0644942
0.0804829	0.0994115
0.100604	0.136999
0.122736	0.182635
0.150905	0.225606
0.17505	0.271247
0.207243	0.306186
0.253521	0.354567
0.301811	0.39223
0.400402	0.443433
0.501006	0.475874
0.603622	0.500278
0.704225	0.516633
0.800805	0.535659
0.901408	0.543972
0.953722	0.552155
0.997988	0.554954
