Adsorption isotherm of Sulfur Hexafluoride on MOF-74-Co
DOI: 10.1016/j.micromeso.2014.02.028
Adsorbate Sulfur Hexafluoride: InChIKey SFZCNBIFKDRMGX-UHFFFAOYSA-N
Temperature: 318 K
Tabular data in the source: 0
pressure (bar)	uptake (mmol/g)
0.0514487	0.422535
0.0633201	0.516432
0.0850812	0.680751
0.10287	0.774648
0.126622	0.985915
0.150364	1.17371
0.170172	1.38498
0.193942	1.64319
0.253271	2.04225
0.300729	2.34742
0.403478	2.8169
0.498264	3.09859
0.596976	3.33333
0.701577	3.49765
0.802224	3.6385
0.900862	3.68545
0.952172	3.75587
0.995574	3.77934
