Adsorption isotherm of Nitrogen on Zn-MOF-74
DOI: 10.1016/j.micromeso.2014.02.028
Adsorbate Nitrogen: InChIKey IJGRMHOSHXDMSA-UHFFFAOYSA-N
Temperature: 318 K
Tabular data in the source: 0
pressure (bar)	uptake (mmol/g)
0.0327869	-0.00711978
0.042623	-0.00159148
0.0819672	0.00592318
0.104918	0.0151729
0.131148	0.0189661
0.152459	0.0190828
0.180328	0.0320091
0.206557	0.0321527
0.254098	0.0378874
0.303279	0.0454559
0.403279	0.0660763
0.5	0.0830292
0.601639	0.101834
0.7	0.12062
0.8	0.137591
0.9	0.152737
0.954098	0.165807
0.996721	0.171515
