Adsorption isotherm of Sulfur Hexafluoride on Zn-MOF-74
DOI: 10.1016/j.micromeso.2014.02.028
Adsorbate Sulfur Hexafluoride: InChIKey SFZCNBIFKDRMGX-UHFFFAOYSA-N
Temperature: 308 K
Tabular data in the source: 0
pressure (bar)	uptake (mmol/g)
0.0273697	0.0206735
0.0337907	0.0956863
0.0514537	0.283338
0.0659212	0.377584
0.0867848	0.640009
0.0996319	0.771401
0.123706	1.07133
0.151011	1.33424
0.178315	1.59714
0.200809	1.78515
0.250618	2.1988
0.302086	2.42624
0.401858	2.67591
0.50162	2.96285
0.599822	3.06334
0.699629	3.18258
0.801046	3.30194
0.900863	3.38392
0.950777	3.40627
0.994244	3.44678
