Adsorption isotherm of Sulfur Hexafluoride on Zn-MOF-74
DOI: 10.1016/j.micromeso.2014.02.028
Adsorbate Sulfur Hexafluoride: InChIKey SFZCNBIFKDRMGX-UHFFFAOYSA-N
Temperature: 298 K
Tabular data in the source: 0
pressure (bar)	uptake (Molecules Adsorbed)
0.0117878	0.0101481
0.0157171	0.0228608
0.0235756	0.0355634
0.0333988	0.0508056
0.0392927	0.0660578
0.0530452	0.0940126
0.0589391	0.111809
0.0825147	0.170273
0.100196	0.226208
0.129666	0.292291
0.149312	0.327864
0.172888	0.371061
0.198428	0.401531
0.251473	0.442108
0.298625	0.469978
0.40275	0.510426
0.500982	0.535621
0.603143	0.555717
0.701375	0.573279
0.801572	0.585747
0.901768	0.590581
0.950884	0.600634
0.996071	0.605608
