Adsorption isotherm of Nitrogen on Mg-MOF-74
DOI: 10.1016/j.micromeso.2014.02.028
Adsorbate Nitrogen: InChIKey IJGRMHOSHXDMSA-UHFFFAOYSA-N
Temperature: 308 K
Tabular data in the source: 0
pressure (bar)	uptake (mmol/g)
0.0467131	0.039496
0.0541969	0.0473807
0.0765675	0.0579905
0.0933616	0.0685567
0.128809	0.0897037
0.149369	0.108125
0.175538	0.131809
0.1998	0.147651
0.248355	0.184552
0.29877	0.221469
0.401474	0.297925
0.504146	0.369163
0.604943	0.437778
0.707615	0.509016
0.802851	0.580196
0.903616	0.643594
0.955873	0.677916
1.00065	0.704353
