Adsorption isotherm of Nitrogen on Zn-MOF-74
DOI: 10.1016/j.micromeso.2014.02.028
Adsorbate Nitrogen: InChIKey IJGRMHOSHXDMSA-UHFFFAOYSA-N
Temperature: 298 K
Tabular data in the source: 0
pressure (bar)	uptake (mmol/g)
0.0420475	0.00827857
0.0639854	0.0002594
0.0822669	0.0206038
0.102377	0.0166313
0.127971	0.0207891
0.157221	0.0330698
0.179159	0.0412669
0.204753	0.0494787
0.250457	0.0618262
0.303473	0.0863654
0.404022	0.111097
0.506399	0.143945
0.603291	0.180824
0.703839	0.213664
0.802559	0.250551
0.903108	0.267175
0.952468	0.283591
0.996344	0.295931
