Adsorption isotherm of Nitrogen on MOF-74-Co
DOI: 10.1016/j.micromeso.2014.02.028
Adsorbate Nitrogen: InChIKey IJGRMHOSHXDMSA-UHFFFAOYSA-N
Temperature: 77 K
Tabular data in the source: 0
pressure (bar)	uptake (cm3(STP)/g)
-0.00191022	129.37
-0.00160632	164.47
0.000738039	185.244
0.000849676	198.138
0.00119699	238.252
0.00135824	256.877
0.00306379	203.868
0.00321884	221.777
0.00331808	233.238
0.00343591	246.848
0.00346692	250.43
0.00361577	267.622
0.00366539	273.352
0.00528411	210.315
0.00533373	216.046
0.0058671	277.65
0.0145809	284.097
0.0341049	289.112
0.0752614	292.693
0.399974	296.991
0.601266	296.275
0.696498	295.559
0.947605	298.424
