Adsorption isotherm of Sulfur Hexafluoride on MOF-74-Co
DOI: 10.1016/j.micromeso.2014.02.028
Adsorbate Sulfur Hexafluoride: InChIKey SFZCNBIFKDRMGX-UHFFFAOYSA-N
Temperature: 298 K
Tabular data in the source: 0
pressure (bar)	uptake (Molecules Adsorbed)
0.0117878	0.0457715
0.0176817	0.0635682
0.0275049	0.0813549
0.043222	0.111849
0.0451866	0.139834
0.0589391	0.188145
0.0766208	0.261892
0.0982318	0.340717
0.127701	0.429701
0.149312	0.485625
0.176817	0.53899
0.202358	0.577093
0.251473	0.632948
0.302554	0.670986
0.400786	0.726716
0.499018	0.759544
0.599214	0.779646
0.701375	0.799742
0.801572	0.814754
0.903733	0.829761
0.950884	0.832186
0.994106	0.837165
