Adsorption isotherm of Nitrogen on Mg-MOF-74
DOI: 10.1016/j.micromeso.2014.02.028
Adsorbate Nitrogen: InChIKey IJGRMHOSHXDMSA-UHFFFAOYSA-N
Temperature: 77 K
Tabular data in the source: 0
pressure (bar)	uptake (cm3(STP)/g)
-0.00376648	305.344
-0.00188324	215.776
0	182.188
0.00188324	316.539
0.00376648	272.774
0.00564972	370.483
0.0112994	375.573
0.0263653	383.715
0.0451977	387.786
0.0696798	391.858
0.397363	401.018
0.497175	404.071
0.702448	405.089
0.890772	406.107
0.943503	409.16
0.992467	421.374
