Adsorption isotherm of Sulfur Hexafluoride on MOF-74-Co
DOI: 10.1016/j.micromeso.2014.02.028
Adsorbate Sulfur Hexafluoride: InChIKey SFZCNBIFKDRMGX-UHFFFAOYSA-N
Temperature: 318 K
Tabular data in the source: 0
pressure (bar)	uptake (Molecules Adsorbed)
0.0587208	0.0667957
0.0789597	0.0850508
0.0951885	0.11833
0.123533	0.148707
0.147855	0.188083
0.172158	0.218423
0.198488	0.251794
0.247114	0.32151
0.297717	0.37016
0.402922	0.446412
0.499979	0.489458
0.599043	0.526497
0.698084	0.551489
0.803185	0.576535
0.908304	0.610617
0.954788	0.620073
0.993179	0.623432
