Adsorption isotherm of Sulfur Hexafluoride on MOF-74-Co
DOI: 10.1016/j.micromeso.2014.02.028
Adsorbate Sulfur Hexafluoride: InChIKey SFZCNBIFKDRMGX-UHFFFAOYSA-N
Temperature: 308 K
Tabular data in the source: 0
pressure (bar)	uptake (mmol/g)
0.0144375	0.206045
0.0256894	0.281418
0.0369313	0.394057
0.0497785	0.525449
0.0626156	0.694108
0.0802736	0.900393
0.0979016	1.21848
0.121956	1.59294
0.150826	2.02366
0.173294	2.30484
0.203795	2.66115
0.248787	3.01854
0.300221	3.37641
0.403164	3.81266
0.498105	4.06197
0.596276	4.27426
0.699299	4.41237
0.802326	4.53185
0.900533	4.6137
0.948826	4.6732
0.992299	4.69508
