Adsorption isotherm of Sulfur Hexafluoride on Zn-MOF-74
DOI: 10.1016/j.micromeso.2014.02.028
Adsorbate Sulfur Hexafluoride: InChIKey SFZCNBIFKDRMGX-UHFFFAOYSA-N
Temperature: 298 K
Tabular data in the source: 0
pressure (bar)	uptake (mmol/g)
0.0265849	0.0889151
0.0368098	0.265797
0.0470348	0.376433
0.0593047	0.465032
0.0654397	0.619742
0.0797546	0.951288
0.102249	1.3051
0.126789	1.68103
0.151329	1.99072
0.175869	2.23417
0.200409	2.41137
0.251534	2.67748
0.300613	2.85522
0.400818	3.10033
0.501022	3.32337
0.601227	3.43599
0.697342	3.52644
0.801636	3.55082
0.895706	3.66331
0.952965	3.73082
0.99591	3.70969
