Adsorption isotherm of Nitrogen on [Zn(45-di(1H-tetrazol-5-yl)-123-triazole)]NN-dimethylacetamide
DOI: 10.1002/Advs.201500150
Article source: Figure S4
Adsorbate Nitrogen: InChIKey IJGRMHOSHXDMSA-UHFFFAOYSA-N
Kind: experiment
Temperature: 77 K
Tabular data in the source: 0
pressure (bar)	uptake (cm3(STP)/g)
0.0025	0.0025
0.0075	148.085
0.01	154.65
0.015	160.486
0.02	164.134
0.03	167.052
0.0375	169.24
0.06	174.347
0.0825	178.723
0.09	179.453
0.1	181.641
0.1225	183.83
0.135	185.289
0.14	185.289
0.16	187.477
0.17	188.207
0.1775	189.666
0.2	192.584
0.21	193.313
0.245	195.502
0.2475	196.231
0.2575	198.419
0.2725	199.149
0.295	200.608
0.3025	201.337
0.32	202.796
0.3425	204.985
0.3525	206.444
0.38	207.173
0.3875	210.821
0.4	208.632
0.43	216.657
0.4425	213.009
0.485	215.927
0.4925	221.033
0.525	218.845
0.5425	222.492
0.5675	220.304
0.595	224.681
0.6075	223.222
0.6475	227.599
0.6575	226.14
0.695	228.328
0.7075	227.599
0.7425	230.517
0.7575	231.976
0.79	232.705
0.805	233.435
0.84	234.894
0.855	235.623
0.885	237.082
0.9025	237.082
0.9325	240
0.955	238.541
0.9725	240.729
0.995	244.377
