Adsorption isotherm of Ethene on Mg-MOF-74
DOI: 10.1021/La2030473
Adsorbate Ethene: InChIKey VGGSQFUCUMXWEO-UHFFFAOYSA-N
Temperature: 298 K
Tabular data in the source: 0
pressure (bar)	uptake (mmol/g)
0.0236738	0.00982897
0.0258587	0.0274298
0.0258587	0.122216
0.0302285	0.46125
0.0345982	1.24894
0.0455226	2.73767
0.0717411	4.05324
0.124178	5.08301
0.198464	5.64942
0.364514	6.18488
0.537119	6.47136
0.725018	6.87407
0.908548	7.19246
1.04401	7.19246
