Adsorption isotherm of Ethene on Mg-MOF-74
DOI: 10.1021/La2030473
Adsorbate Ethene: InChIKey VGGSQFUCUMXWEO-UHFFFAOYSA-N
Temperature: 318 K
Tabular data in the source: 0
pressure (bar)	uptake (mmol/g)
0.0123932	0.0732669
0.0153064	0.641334
0.0284156	1.2968
0.0400683	1.58811
0.0691999	2.62229
0.104158	3.36514
0.174074	4.32649
0.23525	4.80716
0.300797	5.215
0.404214	5.60828
0.535306	5.97243
0.666399	6.19091
0.800404	6.4531
0.932953	6.61332
1.01889	6.71528
