Adsorption isotherm of Ethane on Mg-MOF-74
DOI: 10.1021/La2030473
Adsorbate Ethane: InChIKey OTMSDBZUPAUEDD-UHFFFAOYSA-N
Temperature: 298 K
Tabular data in the source: 0
pressure (bar)	uptake (mmol/g)
0.0280436	0.0104406
0.0345982	0.0583382
0.0455226	0.198097
0.0673713	0.596163
0.115439	1.34684
0.189724	2.57729
0.314262	3.99252
0.482497	5.16031
0.652918	5.91109
0.849556	6.47136
1.04619	6.56977
