Adsorption isotherm of Propene on Mg-MOF-74
DOI: 10.1021/La2030473
Adsorbate Propene: InChIKey QQONPFPTGQHPMA-UHFFFAOYSA-N
Temperature: 318 K
Tabular data in the source: 0
pressure (bar)	uptake (mmol/g)
0.0123932	0.277188
0.0153064	1.19484
0.0182195	2.54946
0.0211327	3.37971
0.026959	4.07887
0.0356985	5.11304
0.044438	5.56458
0.079396	6.29287
0.150769	6.80268
0.206119	6.99203
0.277491	7.21052
0.407127	7.39988
0.544046	7.54554
0.669312	7.69119
0.804774	7.80772
0.931497	7.88055
1.01744	7.93881
