Adsorption isotherm of N-propane on Mg-MOF-74
DOI: 10.1021/La2030473
Adsorbate N-propane: InChIKey ATUOYWHBWRKTHZ-UHFFFAOYSA-N
Temperature: 298 K
Tabular data in the source: 0
pressure (bar)	uptake (mmol/g)
0.0193041	0.0104406
0.021489	0.0199791
0.0236738	0.0549205
0.0236738	0.155598
0.0258587	0.896066
0.0258587	2.4263
0.0280436	0.34107
0.0302285	5.64942
0.0564469	6.47136
0.132918	6.7711
0.237791	7.19246
0.366699	7.41288
0.513086	7.75623
0.786195	7.99392
1.05056	8.11549
