Adsorption isotherm of N-propane on Mg-MOF-74
DOI: 10.1021/La2030473
Adsorbate N-propane: InChIKey ATUOYWHBWRKTHZ-UHFFFAOYSA-N
Temperature: 278 K
Tabular data in the source: 0
pressure (bar)	uptake (mmol/g)
0.0127495	3.84225
0.0171192	4.65066
0.0171192	5.00024
0.0236738	5.67755
0.0389679	6.02713
0.0717411	6.48595
0.111069	6.74814
0.209388	7.01032
0.305523	7.11956
0.406027	7.22881
0.532749	7.4036
0.668212	7.49099
0.797119	7.62209
0.867035	7.66578
0.95443	7.73133
1.06149	7.77503
