Adsorption isotherm of Ethane on Mg-MOF-74
DOI: 10.1021/La2030473
Adsorbate Ethane: InChIKey OTMSDBZUPAUEDD-UHFFFAOYSA-N
Temperature: 318 K
Tabular data in the source: 0
pressure (bar)	uptake (mmol/g)
0.0324133	0.215363
0.0979595	0.652337
0.161321	1.17671
0.231237	1.65738
0.305523	2.18175
0.368884	2.61872
0.465018	3.25234
0.60485	3.9515
0.735943	4.43217
0.87359	4.86914
1.01779	5.19688
1.06586	5.30612
