Adsorption isotherm of Propene on Mg-MOF-74
DOI: 10.1021/La2030473
Adsorbate Propene: InChIKey QQONPFPTGQHPMA-UHFFFAOYSA-N
Temperature: 298 K
Tabular data in the source: 0
pressure (bar)	uptake (mmol/g)
0.0193041	0.0101302
0.021489	0.0235872
0.0258587	0.596163
0.0280436	0.0566036
0.0280436	0.204168
0.0324133	1.47449
0.0477074	3.08901
0.0717411	4.30547
0.121993	5.39933
0.218128	6.00098
0.377623	6.27894
0.574262	6.56977
0.78401	6.56977
0.930396	6.7711
1.04619	6.7711
