Adsorption isotherm of N-propane on Mg-MOF-74
DOI: 10.1021/La2030473
Adsorbate N-propane: InChIKey ATUOYWHBWRKTHZ-UHFFFAOYSA-N
Temperature: 298 K
Tabular data in the source: 0
pressure (bar)	uptake (mmol/g)
0.0149343	1.43889
0.0149343	1.89772
0.0302285	3.77671
0.0345982	4.21368
0.0717411	5.39351
0.141657	6.00528
0.215943	6.31116
0.336111	6.57335
0.469388	6.79183
0.602665	6.92293
0.733758	7.01032
0.867035	7.07587
0.952245	7.11956
1.06586	7.16326
