Adsorption isotherm of N-propane on Mg-MOF-74
DOI: 10.1021/La2030473
Adsorbate N-propane: InChIKey ATUOYWHBWRKTHZ-UHFFFAOYSA-N
Temperature: 298 K
Tabular data in the source: 0
pressure (bar)	uptake (mmol/g)
0.0193041	1.15816
0.0193041	3.64686
0.021489	0.0114302
0.021489	0.0365393
0.021489	0.124075
0.021489	0.482614
0.0258587	5.31845
0.0324133	7.87418
0.115439	7.99392
0.194094	8.2389
0.329556	8.75161
0.567707	9.0198
1.0025	9.29622
