Adsorption isotherm of N-propane on Mg-MOF-74
DOI: 10.1021/La2030473
Adsorbate N-propane: InChIKey ATUOYWHBWRKTHZ-UHFFFAOYSA-N
Temperature: 318 K
Tabular data in the source: 0
pressure (bar)	uptake (mmol/g)
0.0149343	0.127968
0.0193041	0.674186
0.0236738	1.24225
0.0389679	2.26914
0.0695562	3.9515
0.108884	4.7599
0.137287	5.10948
0.233422	5.612
0.305523	5.85234
0.368884	6.04898
0.475943	6.24561
0.539304	6.28931
0.668212	6.4641
0.803674	6.5515
0.95006	6.66074
1.06586	6.72629
