Adsorption isotherm of Propene on Mg-MOF-74
DOI: 10.1021/La2030473
Adsorbate Propene: InChIKey QQONPFPTGQHPMA-UHFFFAOYSA-N
Temperature: 278 K
Tabular data in the source: 0
pressure (bar)	uptake (mmol/g)
0.0109366	4.02061
0.0123932	1.26766
0.0123932	5.87047
0.0138498	4.99652
0.0196761	6.4968
0.0386117	7.0066
0.0764828	7.38531
0.143486	7.77859
0.209032	7.96794
0.277491	8.1136
0.404214	8.27383
0.541133	8.37579
0.672225	8.52145
0.798948	8.59428
0.953346	8.69624
1.01452	8.7108
