Adsorption isotherm of Ethene on Mg-MOF-74
DOI: 10.1021/La2030473
Adsorbate Ethene: InChIKey VGGSQFUCUMXWEO-UHFFFAOYSA-N
Temperature: 278 K
Tabular data in the source: 0
pressure (bar)	uptake (mmol/g)
0.0109366	2.9136
0.0123932	2.05422
0.0182195	3.67103
0.0240459	4.37019
0.0371551	5.12761
0.0721131	5.9433
0.107071	6.27831
0.168248	6.56963
0.23525	6.80268
0.334298	7.06486
0.46539	7.38531
0.605222	7.58923
0.736315	7.86598
0.871777	8.02621
1.01015	8.201
