Adsorption isotherm of Ethane on Mg-MOF-74
DOI: 10.1021/La2030473
Adsorbate Ethane: InChIKey OTMSDBZUPAUEDD-UHFFFAOYSA-N
Temperature: 298 K
Tabular data in the source: 0
pressure (bar)	uptake (mmol/g)
0.0324133	0.390152
0.0651864	0.914522
0.128548	1.78847
0.202833	2.90276
0.25964	3.64561
0.307707	4.08259
0.364514	4.60696
0.403842	4.8036
0.469388	5.19688
0.52838	5.50276
0.666027	5.96158
0.801489	6.22377
0.936951	6.52965
1.06804	6.70444
