Adsorption isotherm of Ethene on Mg-MOF-74
DOI: 10.1021/La2030473
Adsorbate Ethene: InChIKey VGGSQFUCUMXWEO-UHFFFAOYSA-N
Temperature: 298 K
Tabular data in the source: 0
pressure (bar)	uptake (mmol/g)
0.00948003	0.393715
0.0153064	1.54442
0.0255024	2.34554
0.0356985	2.97187
0.0386117	3.37971
0.0691999	4.48671
0.130376	5.37523
0.171161	5.73937
0.242533	6.07439
0.334298	6.38027
0.471217	6.65702
0.603766	6.91921
0.739228	7.07943
0.871777	7.28335
1.01161	7.44357
