Adsorption isotherm of Ethene on Mg-MOF-74
DOI: 10.1021/La2030473
Adsorbate Ethene: InChIKey VGGSQFUCUMXWEO-UHFFFAOYSA-N
Temperature: 298 K
Tabular data in the source: 0
pressure (bar)	uptake (mmol/g)
0.0236738	0.0258228
0.0258587	0.0143342
0.0258587	0.0850783
0.0324133	0.144288
0.0411528	0.288897
0.0739259	0.980997
0.121993	2.02437
0.194094	3.70232
0.333926	5.91109
0.569892	7.52561
0.998128	9.0198
