Adsorption isotherm of Ethane on Mg-MOF-74
DOI: 10.1021/La2030473
Adsorbate Ethane: InChIKey OTMSDBZUPAUEDD-UHFFFAOYSA-N
Temperature: 298 K
Tabular data in the source: 0
pressure (bar)	uptake (mmol/g)
0.0280436	0.0119596
0.0302285	0.1338
0.0324133	0.0418554
0.0345982	0.440832
0.0411528	0.966302
0.0564469	2.15034
0.0761108	4.11488
0.121993	6.37442
0.194094	7.64005
0.329556	7.99392
0.574262	8.36419
0.998128	8.62051
