Adsorption isotherm of Propene on Mg-MOF-74
DOI: 10.1021/La2030473
Adsorbate Propene: InChIKey QQONPFPTGQHPMA-UHFFFAOYSA-N
Temperature: 298 K
Tabular data in the source: 0
pressure (bar)	uptake (mmol/g)
0.0171192	0.0105994
0.0193041	0.019385
0.0193041	0.0658249
0.0193041	5.73533
0.021489	2.73767
0.0236738	0.623776
0.0411528	7.64005
0.0630016	7.87418
0.108884	7.87418
0.176615	7.87418
0.312077	7.99392
0.554598	7.87418
1.00031	7.75623
