Adsorption isotherm of Ethane on Mg-MOF-74
DOI: 10.1021/La2030473
Adsorbate Ethane: InChIKey OTMSDBZUPAUEDD-UHFFFAOYSA-N
Temperature: 278 K
Tabular data in the source: 0
pressure (bar)	uptake (mmol/g)
0.0193041	0.521245
0.0367831	1.02377
0.0651864	2.2036
0.104514	3.40528
0.130733	3.99519
0.17443	4.8036
0.233422	5.52461
0.303338	6.07082
0.368884	6.4641
0.469388	6.81368
0.534934	6.98847
0.60485	7.22881
0.735943	7.4473
0.86485	7.62209
1.00905	7.84057
1.06804	7.90612
