Adsorption isotherm of Propene on Mg-MOF-74
DOI: 10.1021/La2030473
Adsorbate Propene: InChIKey QQONPFPTGQHPMA-UHFFFAOYSA-N
Temperature: 298 K
Tabular data in the source: 0
pressure (bar)	uptake (mmol/g)
0.0109366	0.437413
0.0123932	2.03965
0.0138498	3.88951
0.0138498	5.27327
0.0240459	5.8996
0.0415248	6.4968
0.0721131	6.86094
0.142029	7.25422
0.206119	7.48727
0.278948	7.6475
0.407127	7.82229
0.541133	7.99708
0.667855	8.12817
0.801861	8.201
0.953346	8.31752
1.01161	8.33209
