Adsorption isotherm of Carbon Dioxide on Zeolite 5A
DOI: 10.1016/j.jiec.2018.03.014
Article source: Figure 4
Adsorbate Carbon Dioxide: InChIKey CURLTUGMZLYLDI-UHFFFAOYSA-N
Kind: experiment
Temperature: 323 K
Tabular data in the source: 0
pressure (bar)	uptake (mmol/g)
1	2.01
2	3.09
3	3.75
4	3.9
5	4.01
6	4.06
7	4.1
8	4.17
9	4.17
10	4.22
