Adsorption isotherm of Carbon Dioxide, Methane on Zeolite 5A
DOI: 10.1016/j.jiec.2018.03.014
Article source: Figure 6
Adsorbate Carbon Dioxide: InChIKey CURLTUGMZLYLDI-UHFFFAOYSA-N
Adsorbate Methane: InChIKey VNWKTOKETHGBQD-UHFFFAOYSA-N
Kind: experiment
Temperature: 323 K
Tabular data in the source: 0
pressure (bar)	Carbon Dioxide fraction	Carbon Dioxide uptake (mmol/g)	Methane fraction	Methane uptake (mmol/g)	total uptake (mmol/g)
1.2	0.7	2.17	0.3	0.114	
3.31	0.7	2.73	0.3	0.0907	
5.31	0.7	2.82	0.3	0.0966	
7.31	0.7	2.82	0.3	0.138	
9.61	0.7	2.8	0.3	0.158	
