Adsorption isotherm of Carbon Dioxide on Zeolite 5A
DOI: 10.1016/j.jiec.2018.03.014
Article source: Figure 4
Adsorbate Carbon Dioxide: InChIKey CURLTUGMZLYLDI-UHFFFAOYSA-N
Kind: experiment
Temperature: 343 K
Tabular data in the source: 0
pressure (bar)	uptake (mmol/g)
1	1.44
2	2.52
3	3.15
4	3.39
5	3.54
6	3.64
7	3.68
8	3.73
9	3.75
10	3.78
