Adsorption isotherm of Methane, Water on Zeolite 5A
DOI: 10.1016/j.jiec.2018.03.014
Article source: Figure 8
Adsorbate Methane: InChIKey VNWKTOKETHGBQD-UHFFFAOYSA-N
Adsorbate Water: InChIKey XLYOFNOQVPJJNP-UHFFFAOYSA-N
Kind: experiment
Temperature: 323 K
Tabular data in the source: 0
pressure (bar)	Methane fraction	Methane uptake (mmol/g)	Water fraction	Water uptake (mmol/g)	total uptake (mmol/g)
1.39	0.99	0.213	0.01	0.0264	
2.39	0.99	0.344	0.01	0.028	
3.99	0.99	0.524	0.01	0.028	
5.39	0.99	0.653	0.01	0.0295	
6.99	0.99	0.78	0.01	0.0295	
8.29	0.99	0.844	0.01	0.0295	
9.68	0.99	0.906	0.01	0.0295	
