Adsorption isotherm of Carbon Dioxide, Water on Zeolite 5A
DOI: 10.1016/j.jiec.2018.03.014
Article source: Figure 8
Adsorbate Carbon Dioxide: InChIKey CURLTUGMZLYLDI-UHFFFAOYSA-N
Adsorbate Water: InChIKey XLYOFNOQVPJJNP-UHFFFAOYSA-N
Kind: experiment
Temperature: 323 K
Tabular data in the source: 0
pressure (bar)	Carbon Dioxide fraction	Carbon Dioxide uptake (mmol/g)	Water fraction	Water uptake (mmol/g)	total uptake (mmol/g)
1.2	0.99	1.34	0.01	0.0549	
2.61	0.99	2.71	0.01	0.0494	
3.99	0.99	2.91	0.01	0.0549	
5.6	0.99	2.99	0.01	0.0549	
6.99	0.99	3.01	0.01	0.0549	
8.6	0.99	3.04	0.01	0.0549	
9.7	0.99	3.04	0.01	0.0549	
