Adsorption isotherm of Methane on Zeolite 5A
DOI: 10.1016/j.jiec.2018.03.014
Article source: Figure 4
Adsorbate Methane: InChIKey VNWKTOKETHGBQD-UHFFFAOYSA-N
Kind: experiment
Temperature: 343 K
Tabular data in the source: 0
pressure (bar)	uptake (mmol/g)
1	0.24
2	0.351
3	0.536
4	0.697
5	0.842
6	0.971
7	1.06
8	1.14
9	1.21
10	1.26
