Adsorption isotherm of Carbon Dioxide, Methane on Zeolite 5A
DOI: 10.1016/j.jiec.2018.03.014
Article source: Figure 6
Adsorbate Carbon Dioxide: InChIKey CURLTUGMZLYLDI-UHFFFAOYSA-N
Adsorbate Methane: InChIKey VNWKTOKETHGBQD-UHFFFAOYSA-N
Kind: experiment
Temperature: 323 K
Tabular data in the source: 0
pressure (bar)	Carbon Dioxide fraction	Carbon Dioxide uptake (mmol/g)	Methane fraction	Methane uptake (mmol/g)	total uptake (mmol/g)
1.4	0.3	0.722	0.7	0.411	
3.3	0.3	1.39	0.7	0.857	
5.3	0.3	1.56	0.7	0.98	
7.2	0.3	1.63	0.7	1.01	
9.7	0.3	1.65	0.7	1.06	
