Adsorption isotherm of Methane on Zeolite 5A
DOI: 10.1016/j.jiec.2018.03.014
Article source: Figure 4
Adsorbate Methane: InChIKey VNWKTOKETHGBQD-UHFFFAOYSA-N
Kind: experiment
Temperature: 323 K
Tabular data in the source: 0
pressure (bar)	uptake (mmol/g)
1	0.122
2	0.231
3	0.371
4	0.512
5	0.621
6	0.73
7	0.852
8	0.993
9	1.11
10	1.23
