Adsorption isotherm of Methane, Water on Zeolite 5A
DOI: 10.1016/j.jiec.2018.03.014
Article source: Figure 9
Adsorbate Methane: InChIKey VNWKTOKETHGBQD-UHFFFAOYSA-N
Adsorbate Water: InChIKey XLYOFNOQVPJJNP-UHFFFAOYSA-N
Kind: experiment
Temperature: 343 K
Tabular data in the source: 0
pressure (bar)	Methane fraction	Methane uptake (mmol/g)	Water fraction	Water uptake (mmol/g)	total uptake (mmol/g)
1.39	0.99	0.137	0.01	0.0274	
2.29	0.99	0.217	0.01	0.0274	
3.99	0.99	0.361	0.01	0.0284	
5.29	0.99	0.46	0.01	0.0274	
6.98	0.99	0.561	0.01	0.0284	
8.09	0.99	0.627	0.01	0.0295	
9.69	0.99	0.678	0.01	0.0305	
