Adsorption isotherm of Carbon Dioxide, Water on Zeolite 5A
DOI: 10.1016/j.jiec.2018.03.014
Article source: Figure 9
Adsorbate Carbon Dioxide: InChIKey CURLTUGMZLYLDI-UHFFFAOYSA-N
Adsorbate Water: InChIKey XLYOFNOQVPJJNP-UHFFFAOYSA-N
Kind: experiment
Temperature: 343 K
Tabular data in the source: 0
pressure (bar)	Carbon Dioxide fraction	Carbon Dioxide uptake (mmol/g)	Water fraction	Water uptake (mmol/g)	total uptake (mmol/g)
1.19	0.99	1.42	0.01	0.0405	
2.51	0.99	2.38	0.01	0.0445	
4.01	0.99	2.65	0.01	0.0211	
5.51	0.99	2.72	0.01	0.0432	
7	0.99	2.8	0.01	0.0472	
8.4	0.99	2.83	0.01	0.0466	
9.7	0.99	2.85	0.01	0.0552	
