Adsorption isotherm of Carbon Dioxide, Methane on Zeolite 5A
DOI: 10.1016/j.jiec.2018.03.014
Article source: Figure 7
Adsorbate Carbon Dioxide: InChIKey CURLTUGMZLYLDI-UHFFFAOYSA-N
Adsorbate Methane: InChIKey VNWKTOKETHGBQD-UHFFFAOYSA-N
Kind: experiment
Temperature: 343 K
Tabular data in the source: 0
pressure (bar)	Carbon Dioxide fraction	Carbon Dioxide uptake (mmol/g)	Methane fraction	Methane uptake (mmol/g)	total uptake (mmol/g)
1.2	0.7	1.82	0.3	0.0635	
3.31	0.7	2.45	0.3	0.0785	
5.31	0.7	2.59	0.3	0.104	
7.2	0.7	2.63	0.3	0.119	
9.69	0.7	2.67	0.3	0.139	
