Adsorption isotherm of Carbon Dioxide, Methane on Zeolite 5A
DOI: 10.1016/j.jiec.2018.03.014
Article source: Figure 6
Adsorbate Carbon Dioxide: InChIKey CURLTUGMZLYLDI-UHFFFAOYSA-N
Adsorbate Methane: InChIKey VNWKTOKETHGBQD-UHFFFAOYSA-N
Kind: experiment
Temperature: 323 K
Tabular data in the source: 0
pressure (bar)	Carbon Dioxide fraction	Carbon Dioxide uptake (mmol/g)	Methane fraction	Methane uptake (mmol/g)	total uptake (mmol/g)
1.29	0.5	1.54	0.5	0.332	
3.29	0.5	2.18	0.5	0.49	
5.28	0.5	2.38	0.5	0.446	
7.19	0.5	2.47	0.5	0.42	
9.58	0.5	2.49	0.5	0.428	
