Adsorption isotherm of Carbon Dioxide, Methane on Zeolite 5A
DOI: 10.1016/j.jiec.2018.03.014
Article source: Figure 7
Adsorbate Carbon Dioxide: InChIKey CURLTUGMZLYLDI-UHFFFAOYSA-N
Adsorbate Methane: InChIKey VNWKTOKETHGBQD-UHFFFAOYSA-N
Kind: experiment
Temperature: 343 K
Tabular data in the source: 0
pressure (bar)	Carbon Dioxide fraction	Carbon Dioxide uptake (mmol/g)	Methane fraction	Methane uptake (mmol/g)	total uptake (mmol/g)
1.38	0.3	0.57	0.7	0.369	
3.29	0.3	1.18	0.7	0.687	
5.2	0.3	1.4	0.7	0.811	
7.16	0.3	1.46	0.7	0.876	
9.7	0.3	1.48	0.7	0.932	
