Adsorption isotherm of Nitrogen on GOF
DOI: 10.1021/acs.iecr.7b01906
Article source: Figure 3B
Adsorbate Nitrogen: InChIKey IJGRMHOSHXDMSA-UHFFFAOYSA-N
Kind: experiment
Temperature: 77 K
Tabular data in the source: 0
pressure (bar)	uptake (cm3(STP)/g)
0.025859	29.476
0.050856	34.7162
0.074992	36.6812
0.101713	39.3013
0.12671	41.2664
0.150845	41.9214
0.20084	48.4716
0.255575	50.4367
0.303415	55.6769
0.354271	60.917
0.403404	63.5371
0.429263	65.5022
0.455984	68.1223
0.479688	71.3974
0.505979	72.7074
0.555973	77.9476
0.582694	80.5677
0.606829	83.1878
0.65941	89.083
0.711128	99.5633
0.735694	102.183
0.759399	107.424
0.785258	113.974
0.811979	123.799
0.836114	132.314
0.862836	144.76
0.889557	165.721
0.911106	199.782
0.963687	372.052
0.987822	625.873
0.988684	626.201
0.963687	483.406
0.939551	366.157
0.91283	282.969
0.861974	189.956
0.833528	163.755
0.811979	148.69
0.761123	124.454
0.736125	115.284
0.710266	109.389
0.65941	99.5633
0.632689	94.9782
0.606829	91.048
0.557697	83.8428
0.534424	80.5677
0.507702	77.2926
0.457277	70.0873
0.430556	67.4672
0.405128	64.8472
0.38013	61.5721
0.354271	60.262
0.330567	57.6419
0.305139	55.6769
0.280141	52.4017
0.226699	47.8166
0.202564	45.8515
0.151707	42.5764
0.10042	37.6638
0.050856	31.441
