Adsorption isotherm of Nitrogen on Ni-MOF
DOI: 10.1021/acs.iecr.7b01906
Article source: Figure 3A
Adsorbate Nitrogen: InChIKey IJGRMHOSHXDMSA-UHFFFAOYSA-N
Kind: experiment
Temperature: 77 K
Tabular data in the source: 0
pressure (bar)	uptake (cm3(STP)/g)
0.025174	11.6919
0.049299	13.0674
0.076571	13.7552
0.100696	15.1307
0.150591	16.4877
0.202018	18.4225
0.228996	18.4225
0.253446	18.6989
0.301922	20.91
0.353771	22.983
0.40562	24.0886
0.429647	25.0559
0.454939	25.8851
0.506366	27.5435
0.55695	30.3074
0.582243	31.6894
0.607956	32.2422
0.632827	33.6242
0.660648	35.2825
0.683832	36.6645
0.710389	38.7375
0.733995	40.8104
0.76013	43.298
0.78753	46.6147
0.8124	50.7606
0.836006	55.0447
0.862142	61.2636
0.912304	81.4404
0.962045	148.328
0.988602	270.218
0.986916	270.494
0.96331	203.883
0.938018	141.694
0.91104	109.08
0.862985	81.9932
0.836006	74.5305
0.810714	68.4499
0.759287	58.2233
0.735681	54.9065
0.70786	51.4516
0.659805	45.5091
0.631984	42.4688
0.608799	40.2576
0.555686	36.2499
0.530815	34.3151
0.506788	32.795
0.456204	27.4053
0.43049	26.4379
0.403933	25.6087
0.379063	24.2267
0.352928	23.5358
0.328057	22.292
0.302765	21.7392
0.277051	20.6336
0.228996	18.9753
0.201175	18.5607
0.150591	16.4877
0.100007	15.1057
0.051109	12.0654
