Adsorption isotherm of Nitrogen on ZIF-8
DOI: 10.1016/j.ces.2011.09.009
Adsorbate Nitrogen: InChIKey IJGRMHOSHXDMSA-UHFFFAOYSA-N
Temperature: 273 K
Tabular data in the source: 0
pressure (bar)	uptake (mg/g)
0.0323791	0.0676971
0.0816749	0.262063
0.129562	0.447979
0.184492	0.650796
0.235196	0.845162
0.281675	1.04798
0.328154	1.2508
0.430971	1.60573
0.530971	1.99446
0.628154	2.37474
0.728154	2.78037
0.828154	3.16065
0.874633	3.33812
0.97745	3.72685
