Adsorption isotherm of Methane on ZIF-8
DOI: 10.1016/j.ces.2011.09.009
Adsorbate Methane: InChIKey VNWKTOKETHGBQD-UHFFFAOYSA-N
Temperature: 323 K
Tabular data in the source: 0
pressure (bar)	uptake (mg/g)
0.0520974	0.098744
0.0999848	0.225505
0.202802	0.563533
0.298576	0.817054
0.402802	1.12691
0.498576	1.4086
0.605619	1.70438
0.70421	2.02832
0.753506	2.16917
0.853506	2.45086
0.901393	2.60579
0.994351	2.85931
