Adsorption isotherm of Carbon Dioxide on ZIF-8
DOI: 10.1016/j.ces.2011.09.009
Adsorbate Carbon Dioxide: InChIKey CURLTUGMZLYLDI-UHFFFAOYSA-N
Temperature: 298 K
Tabular data in the source: 0
pressure (bar)	uptake (mg/g)
1.01363	18.2448
9.97137	180.921
20.1967	245.005
29.9995	270.639
