Adsorption isotherm of Nitrogen on ZIF-8
DOI: 10.1016/j.ces.2011.09.009
Adsorbate Nitrogen: InChIKey IJGRMHOSHXDMSA-UHFFFAOYSA-N
Temperature: 348 K
Tabular data in the source: 0
pressure (bar)	uptake (mg/g)
0.0323791	0.00854218
0.10421	0.0592464
0.209844	0.143753
0.307027	0.245162
0.405619	0.321218
0.505619	0.422627
0.608435	0.515584
0.705619	0.574739
0.802802	0.659246
0.902802	0.726852
0.997168	0.81981
