Adsorption isotherm of Nitrogen on ZIF-8
DOI: 10.1016/j.ces.2011.09.009
Adsorbate Nitrogen: InChIKey IJGRMHOSHXDMSA-UHFFFAOYSA-N
Temperature: 298 K
Tabular data in the source: 0
pressure (bar)	uptake (mg/g)
0.063365	0.0930492
0.111252	0.22826
0.208435	0.481782
0.309844	0.726852
0.414069	0.988824
0.509844	1.23389
0.605619	1.46206
0.70421	1.71558
0.798576	1.96065
0.911252	2.23108
0.995759	2.43389
