Adsorption isotherm of Methane on ZIF-8
DOI: 10.1016/j.ces.2011.09.009
Adsorbate Methane: InChIKey VNWKTOKETHGBQD-UHFFFAOYSA-N
Temperature: 348 K
Tabular data in the source: 0
pressure (bar)	uptake (mg/g)
0.0295622	0.000152
0.107027	0.126913
0.208435	0.324096
0.309844	0.549448
0.418295	0.732547
0.514069	0.915645
0.618295	1.11283
0.671816	1.23959
0.776041	1.43677
0.92252	1.67621
1.02393	1.87339
