Adsorption isotherm of Methane on ZIF-8
DOI: 10.1016/j.ces.2011.09.009
Adsorbate Methane: InChIKey VNWKTOKETHGBQD-UHFFFAOYSA-N
Temperature: 298 K
Tabular data in the source: 0
pressure (bar)	uptake (mg/g)
0.0478721	0.140998
0.0999848	0.394519
0.153506	0.633955
0.202802	0.873392
0.252097	1.08466
0.302802	1.36635
0.401393	1.83114
0.501393	2.28184
0.652097	2.9579
0.809844	3.66212
0.905619	4.12691
0.998576	4.5917
