Adsorption isotherm of Carbon Dioxide on ZIF-8
DOI: 10.1016/j.ces.2011.09.009
Adsorbate Carbon Dioxide: InChIKey CURLTUGMZLYLDI-UHFFFAOYSA-N
Temperature: 298 K
Tabular data in the source: 0
pressure (bar)	uptake (mg/g)
0.025177	0.529291
0.0523498	1.44458
0.102405	3.16075
0.149599	4.41928
0.198224	6.24986
0.25114	7.6228
0.34982	11.0551
0.448499	14.2587
0.547179	17.9198
0.648719	20.7801
0.745969	25.0133
0.840359	28.1024
0.898994	29.7042
