Adsorption isotherm of Carbon Dioxide on ZIF-8
DOI: 10.1016/j.ces.2011.09.009
Adsorbate Carbon Dioxide: InChIKey CURLTUGMZLYLDI-UHFFFAOYSA-N
Temperature: 323 K
Tabular data in the source: 0
pressure (bar)	uptake (mg/g)
1.05588	13.9505
9.92912	122.965
19.7742	200.922
29.9573	242.753
