Adsorption isotherm of Carbon monoxide on ZIF-8
DOI: 10.1016/j.ces.2011.09.009
Adsorbate Carbon monoxide: InChIKey UGFAIRIUMAVXCW-UHFFFAOYSA-N
Temperature: 298 K
Tabular data in the source: 0
pressure (bar)	uptake (mg/g)
0.0535059	0.21563
0.107027	0.405771
0.156323	0.545208
0.252097	0.874785
0.352097	1.19169
0.454914	1.52126
0.556323	1.88887
0.653506	2.20577
0.752097	2.49732
0.854914	2.8776
0.95914	3.20718
