Adsorption isotherm of Carbon monoxide on ZIF-8
DOI: 10.1016/j.ces.2011.09.009
Adsorbate Carbon monoxide: InChIKey UGFAIRIUMAVXCW-UHFFFAOYSA-N
Temperature: 348 K
Tabular data in the source: 0
pressure (bar)	uptake (mg/g)
0.0168862	0.0761935
0.050689	0.126898
0.102802	0.21563
0.198576	0.304363
0.295759	0.443799
0.402802	0.595912
0.502802	0.709996
0.60421	0.836757
0.698576	0.950841
0.754914	1.05225
0.850689	1.15366
0.999985	1.3438
