Adsorption isotherm of Carbon Dioxide on ZIF-8
DOI: 10.1016/j.ces.2011.09.009
Adsorbate Carbon Dioxide: InChIKey CURLTUGMZLYLDI-UHFFFAOYSA-N
Temperature: 348 K
Tabular data in the source: 0
pressure (bar)	uptake (mg/g)
1.14039	6.41379
10.0981	70.4983
20.1122	121.766
30.0418	149.864
