Adsorption isotherm of Methane on ZIF-8
DOI: 10.1016/j.ces.2011.09.009
Adsorbate Methane: InChIKey VNWKTOKETHGBQD-UHFFFAOYSA-N
Temperature: 273 K
Tabular data in the source: 0
pressure (bar)	uptake (mg/g)
0.0239284	0.112829
0.102802	0.676209
0.199985	1.4086
0.302802	2.2255
0.397168	2.92973
0.450689	3.33818
0.602802	4.43677
0.699985	5.16917
0.747872	5.53536
0.807027	5.9579
0.956323	7.02832
0.997168	7.36635
