Adsorption isotherm of Carbon Dioxide on ZIF-8
DOI: 10.1016/j.ces.2011.09.009
Adsorbate Carbon Dioxide: InChIKey CURLTUGMZLYLDI-UHFFFAOYSA-N
Temperature: 323 K
Tabular data in the source: 0
pressure (bar)	uptake (mg/g)
1.18264	15.7807
10.0981	124.513
19.9855	203.95
29.8305	246.767
