Adsorption isotherm of Carbon Dioxide on ZIF-8
DOI: 10.1016/j.ces.2011.09.009
Adsorbate Carbon Dioxide: InChIKey CURLTUGMZLYLDI-UHFFFAOYSA-N
Temperature: 273 K
Tabular data in the source: 0
pressure (bar)	uptake (mg/g)
0.0280373	1.21576
0.0709416	3.50399
0.126717	6.36427
0.173912	9.56779
0.225397	12.5425
0.294044	16.5469
0.374132	20.7801
0.522867	30.3907
0.624407	36.7977
0.718796	42.6327
0.814616	49.1542
0.917586	55.4468
0.971932	59.2224
