Adsorption isotherm of Carbon monoxide on ZIF-8
DOI: 10.1016/j.ces.2011.09.009
Adsorbate Carbon monoxide: InChIKey UGFAIRIUMAVXCW-UHFFFAOYSA-N
Temperature: 323 K
Tabular data in the source: 0
pressure (bar)	uptake (mg/g)
0.050689	0.164926
0.156323	0.355067
0.20421	0.469151
0.257731	0.608588
0.302802	0.684644
0.352097	0.824081
0.450689	1.03957
0.50421	1.17901
0.656323	1.47056
0.752097	1.68605
0.850689	1.90155
0.902802	2.02831
0.954914	2.11704
