Adsorption isotherm of Carbon Dioxide on ZIF-8
DOI: 10.1016/j.ces.2011.09.009
Adsorbate Carbon Dioxide: InChIKey CURLTUGMZLYLDI-UHFFFAOYSA-N
Temperature: 348 K
Tabular data in the source: 0
pressure (bar)	uptake (mg/g)
0.0595005	0.643703
0.15103	1.33017
0.254	2.5887
0.295474	2.93193
0.392724	4.41928
0.442779	5.33457
0.548609	6.36427
0.601525	7.05074
0.844893	10.0441
0.99172	11.7221
