Adsorption isotherm of Carbon Dioxide on ZIF-8
DOI: 10.1016/j.ces.2011.09.009
Adsorbate Carbon Dioxide: InChIKey CURLTUGMZLYLDI-UHFFFAOYSA-N
Temperature: 323 K
Tabular data in the source: 0
pressure (bar)	uptake (mg/g)
0.00658518	0.300468
0.0223168	0.41488
0.0995445	1.67341
0.149599	2.5887
0.203945	3.27517
0.248279	4.19046
0.301195	5.33457
0.339808	6.47869
0.398444	7.27957
0.547179	10.3687
0.691624	13.1145
0.797454	15.4028
0.896134	17.0045
