Adsorption isotherm of Carbon monoxide on ZIF-8
DOI: 10.1016/j.ces.2011.09.009
Adsorbate Carbon monoxide: InChIKey UGFAIRIUMAVXCW-UHFFFAOYSA-N
Temperature: 273 K
Tabular data in the source: 0
pressure (bar)	uptake (mg/g)
0.0295622	0.177602
0.102802	0.63394
0.157731	0.938165
0.250689	1.47056
0.349281	2.06633
0.401393	2.39591
0.450689	2.64943
0.552097	3.25788
0.649281	3.80295
0.754914	4.43676
0.811252	4.74098
0.90421	5.28605
