Adsorption isotherm of Carbon Dioxide on ZIF-8
DOI: 10.1016/j.ces.2011.09.009
Adsorbate Carbon Dioxide: InChIKey CURLTUGMZLYLDI-UHFFFAOYSA-N
Temperature: 298 K
Tabular data in the source: 0
pressure (bar)	uptake (mg/g)
1.09813	23.6681
10.0136	211.837
20.07	296.344
30.0418	331.274
