Adsorption isotherm of Nitrogen on ZIF-8
DOI: 10.1016/j.ces.2011.09.009
Adsorbate Nitrogen: InChIKey IJGRMHOSHXDMSA-UHFFFAOYSA-N
Temperature: 323 K
Tabular data in the source: 0
pressure (bar)	uptake (mg/g)
0.0197031	9.15e-05
0.105619	0.152204
0.208435	0.329669
0.35914	0.591641
0.45914	0.777556
0.556323	0.955021
0.654914	1.12404
0.756323	1.3184
0.852097	1.48742
0.954914	1.68178
1.0028	1.78319
