Adsorption isotherm of N-propane on ZIF-8
DOI: 10.1002/cite.201300078
Adsorbate N-propane: InChIKey ATUOYWHBWRKTHZ-UHFFFAOYSA-N
Temperature: 293 K
Tabular data in the source: 0
pressure (bar)	uptake (mmol/g)
0.0563228	0.95078
0.108435	2.04937
0.170407	2.84515
0.230971	3.26064
0.278858	3.46486
0.333788	3.64092
0.353506	3.68317
0.409844	3.78881
0.480266	3.88036
0.549281	3.95078
0.62252	4.00712
0.688717	4.02825
0.763365	4.06346
0.830971	4.08458
0.881675	4.09867
0.932379	4.11979
0.999985	4.11979
