Adsorption isotherm of Ethane on ZIF-8
DOI: 10.1002/cite.201300078
Adsorbate Ethane: InChIKey OTMSDBZUPAUEDD-UHFFFAOYSA-N
Temperature: 303 K
Tabular data in the source: 0
pressure (bar)	uptake (mmol/g)
0.0165962	0.0112676
0.113846	0.195756
0.15675	0.277274
0.209665	0.375954
0.25543	0.474634
0.308345	0.573314
0.362691	0.667703
0.408455	0.774964
0.477102	0.895096
0.548609	1.03239
0.620117	1.15252
0.690194	1.28552
0.761701	1.40566
0.830348	1.5215
0.881833	1.58586
0.930458	1.65879
1.00053	1.75318
