Adsorption isotherm of Ethene on ZIF-8
DOI: 10.1002/cite.201300078
Adsorbate Ethene: InChIKey VGGSQFUCUMXWEO-UHFFFAOYSA-N
Temperature: 283 K
Tabular data in the source: 0
pressure (bar)	uptake (mmol/g)
0.0126608	0.0253826
0.0549143	0.101439
0.112661	0.211298
0.153506	0.290171
0.20421	0.383129
0.253506	0.476087
0.305619	0.577495
0.354914	0.67327
0.408435	0.771861
0.478858	0.907073
0.547872	1.03947
0.618295	1.16341
0.690126	1.29299
0.763365	1.41411
0.832379	1.52961
0.883083	1.60285
0.930971	1.68172
