Adsorption isotherm of Ethene on ZIF-8
DOI: 10.1002/cite.201300078
Adsorbate Ethene: InChIKey VGGSQFUCUMXWEO-UHFFFAOYSA-N
Temperature: 293 K
Tabular data in the source: 0
pressure (bar)	uptake (mmol/g)
0.0112524	0.014115
0.0943509	0.135242
0.153506	0.216932
0.205619	0.290171
0.254914	0.360594
0.307027	0.439467
0.354914	0.50989
0.405619	0.577495
0.480266	0.676087
0.547872	0.769045
0.619703	0.862002
0.688717	0.95496
0.761957	1.04228
0.830971	1.12679
0.883083	1.18595
0.935196	1.24792
