Adsorption isotherm of Ethene on ZIF-8
DOI: 10.1002/cite.201300078
Adsorbate Ethene: InChIKey VGGSQFUCUMXWEO-UHFFFAOYSA-N
Temperature: 313 K
Tabular data in the source: 0
pressure (bar)	uptake (mmol/g)
0.0112524	0.00566429
0.154914	0.135242
0.205619	0.177495
0.253506	0.216932
0.305619	0.262002
0.356323	0.304256
0.40421	0.343692
0.480266	0.40003
0.550689	0.453552
0.619703	0.501439
0.690126	0.549326
0.760548	0.594397
0.832379	0.639467
0.881675	0.667636
0.932379	0.701439
