Adsorption isotherm of Ethene on ZIF-8
DOI: 10.1002/cite.201300078
Adsorbate Ethene: InChIKey VGGSQFUCUMXWEO-UHFFFAOYSA-N
Temperature: 313 K
Tabular data in the source: 0
pressure (bar)	uptake (mmol/g)
0.0623608	0.091182
0.102405	0.116925
0.15961	0.159829
0.208235	0.185571
0.25543	0.237057
0.308345	0.279961
0.3584	0.322865
0.408455	0.37435
0.479963	0.417255
0.548609	0.460159
0.621547	0.511644
0.691624	0.554548
0.763131	0.614614
0.830348	0.666099
0.883263	0.691842
0.929027	0.709004
0.996244	0.734746
