Adsorption isotherm of Ethane on ZIF-8
DOI: 10.1002/cite.201300078
Adsorbate Ethane: InChIKey OTMSDBZUPAUEDD-UHFFFAOYSA-N
Temperature: 283 K
Tabular data in the source: 0
pressure (bar)	uptake (mmol/g)
0.0123058	0.0327197
0.0509196	0.148561
0.102405	0.328759
0.168191	0.556152
0.206805	0.680574
0.25543	0.890806
0.305485	1.071
0.35983	1.26407
0.408455	1.44427
0.479963	1.7017
0.55147	1.93338
0.621547	2.15219
0.690194	2.35384
0.760271	2.51688
0.830348	2.67133
0.881833	2.78718
0.931888	2.87727
