Adsorption isotherm of Ethene on ZIF-8
DOI: 10.1002/cite.201300078
Adsorbate Ethene: InChIKey VGGSQFUCUMXWEO-UHFFFAOYSA-N
Temperature: 323 K
Tabular data in the source: 0
pressure (bar)	uptake (mmol/g)
0.0112524	0.0112981
0.0591397	0.0394671
0.101393	0.0676361
0.153506	0.101439
0.202802	0.138059
0.253506	0.171861
0.308435	0.211298
0.357731	0.242284
0.407027	0.270453
0.484492	0.31834
0.549281	0.352143
0.62252	0.397214
0.694351	0.431016
0.761957	0.464819
0.830971	0.495805
0.881675	0.51834
0.933788	0.535242
