Adsorption isotherm of N-propane on ZIF-8
DOI: 10.1002/cite.201300078
Adsorbate N-propane: InChIKey ATUOYWHBWRKTHZ-UHFFFAOYSA-N
Temperature: 283 K
Tabular data in the source: 0
pressure (bar)	uptake (mmol/g)
0.0140693	0.232471
0.0577312	1.59163
0.108435	2.8874
0.178858	3.52825
0.223928	3.73247
0.278858	3.8874
0.326745	3.98599
0.35914	4.03529
0.407027	4.11275
0.47745	4.17613
0.553506	4.24656
0.621112	4.26768
0.688717	4.29585
0.764773	4.32402
0.832379	4.33106
0.880266	4.35219
0.932379	4.35219
1.00139	4.35219
