Adsorption isotherm of Propene on ZIF-8
DOI: 10.1002/cite.201300078
Adsorbate Propene: InChIKey QQONPFPTGQHPMA-UHFFFAOYSA-N
Temperature: 283 K
Tabular data in the source: 0
pressure (bar)	uptake (mmol/g)
0.0126608	0.119795
0.0563228	0.957823
0.102802	2.0212
0.161957	2.95782
0.225337	3.51416
0.284492	3.78881
0.336604	3.98599
0.373224	4.08458
0.40421	4.15501
0.481675	4.28177
0.549281	4.37332
0.618295	4.44374
0.691534	4.50008
0.764773	4.52825
0.833788	4.5705
0.883083	4.57754
0.935196	4.59867
1.00139	4.59867
