Adsorption isotherm of Propene on ZIF-8
DOI: 10.1002/cite.201300078
Adsorbate Propene: InChIKey QQONPFPTGQHPMA-UHFFFAOYSA-N
Temperature: 313 K
Tabular data in the source: 0
pressure (bar)	uptake (mmol/g)
0.0165962	0.091182
0.0566402	0.331446
0.108125	0.666099
0.15532	1.0265
0.211096	1.40405
0.261151	1.78161
0.316926	2.11626
0.35983	2.33079
0.405595	2.52815
0.475672	2.76841
0.55147	2.98293
0.622977	3.13739
0.691624	3.2661
0.75884	3.35191
0.828917	3.41197
0.881833	3.46346
0.930458	3.51494
0.999104	3.56643
