Adsorption isotherm of N-propane on ZIF-8
DOI: 10.1002/cite.201300078
Adsorbate N-propane: InChIKey ATUOYWHBWRKTHZ-UHFFFAOYSA-N
Temperature: 303 K
Tabular data in the source: 0
pressure (bar)	uptake (mmol/g)
0.0549143	0.60571
0.105619	1.35219
0.164773	2.14092
0.215478	2.59867
0.268999	2.92965
0.323928	3.16205
0.353506	3.23951
0.405619	3.3874
0.478858	3.51416
0.546464	3.60571
0.619703	3.69022
0.690126	3.73951
0.75914	3.78177
0.828154	3.79585
0.880266	3.82402
0.932379	3.85219
0.999985	3.84515
