Adsorption isotherm of N-propane on ZIF-8
DOI: 10.1002/cite.201300078
Adsorbate N-propane: InChIKey ATUOYWHBWRKTHZ-UHFFFAOYSA-N
Temperature: 313 K
Tabular data in the source: 0
pressure (bar)	uptake (mmol/g)
0.0137359	0.091182
0.0509196	0.434416
0.105265	0.97501
0.15532	1.46412
0.213956	1.96181
0.262581	2.33937
0.319786	2.60537
0.35411	2.75125
0.407025	2.92287
0.482823	3.11164
0.55004	3.23178
0.617256	3.32617
0.688763	3.39481
0.75598	3.4463
0.833208	3.49778
0.880403	3.52353
0.930458	3.55785
