Adsorption isotherm of Ethane on ZIF-8
DOI: 10.1002/cite.201300078
Adsorbate Ethane: InChIKey OTMSDBZUPAUEDD-UHFFFAOYSA-N
Temperature: 323 K
Tabular data in the source: 0
pressure (bar)	uptake (mmol/g)
0.0165962	0.0112676
0.0595005	0.0584623
0.102405	0.101367
0.15389	0.161433
0.203945	0.208627
0.25543	0.277274
0.309776	0.33305
0.35554	0.384535
0.405595	0.444601
0.478532	0.517538
0.55004	0.599056
0.620117	0.667703
0.690194	0.73206
0.760271	0.800707
0.830348	0.860772
0.881833	0.903677
0.930458	0.946581
1.00196	0.993776
