Adsorption isotherm of N-propane on ZIF-8
DOI: 10.1002/cite.201300078
Adsorbate N-propane: InChIKey ATUOYWHBWRKTHZ-UHFFFAOYSA-N
Temperature: 313 K
Tabular data in the source: 0
pressure (bar)	uptake (mmol/g)
0.050689	0.401485
0.107027	0.95078
0.156323	1.45078
0.216886	1.95078
0.261957	2.30289
0.321112	2.58458
0.356323	2.72543
0.408435	2.92965
0.481675	3.08458
0.549281	3.23247
0.621112	3.33106
0.691534	3.41557
0.760548	3.45078
0.828154	3.50008
0.883083	3.5212
0.933788	3.54233
1.00139	3.55641
