Adsorption isotherm of N-propane on ZIF-8
DOI: 10.1002/cite.201300078
Adsorbate N-propane: InChIKey ATUOYWHBWRKTHZ-UHFFFAOYSA-N
Temperature: 313 K
Tabular data in the source: 0
pressure (bar)	uptake (mmol/g)
0.0168862	0.077541
0.0577312	0.338104
0.111252	0.683175
0.157731	1.04937
0.214069	1.4367
0.264773	1.7536
0.316886	2.0212
0.35914	2.23247
0.409844	2.39444
0.483083	2.62684
0.547872	2.78177
0.614069	2.90148
0.688717	3.00712
0.761957	3.09163
0.832379	3.15501
0.884492	3.19726
0.936604	3.23247
0.998576	3.23951
