Adsorption isotherm of Propene on ZIF-8
DOI: 10.1002/cite.201300078
Adsorbate Propene: InChIKey QQONPFPTGQHPMA-UHFFFAOYSA-N
Temperature: 293 K
Tabular data in the source: 0
pressure (bar)	uptake (mmol/g)
0.0563228	0.626837
0.102802	1.3874
0.161957	2.23951
0.219703	2.84515
0.276041	3.21839
0.353506	3.54233
0.408435	3.71134
0.480266	3.86627
0.552097	3.97895
0.62252	4.07754
0.694351	4.14092
0.764773	4.19022
0.832379	4.23951
0.8859	4.26768
0.933788	4.28881
1.0028	4.30289
