Adsorption isotherm of Propene on ZIF-8
DOI: 10.1002/cite.201300078
Adsorbate Propene: InChIKey QQONPFPTGQHPMA-UHFFFAOYSA-N
Temperature: 303 K
Tabular data in the source: 0
pressure (bar)	uptake (mmol/g)
0.0520974	0.415569
0.10421	0.922611
0.153506	1.45078
0.211252	1.99303
0.266182	2.42965
0.321112	2.73951
0.409844	3.14796
0.480266	3.35219
0.552097	3.50712
0.62252	3.63388
0.692943	3.72543
0.75914	3.79585
0.830971	3.85923
0.8859	3.8874
0.936604	3.92261
0.999985	3.94374
