Adsorption isotherm of 1-butene on ZIF-8
DOI: 10.1002/cite.201300078
Adsorbate 1-butene: InChIKey VXNZUUAINFGPBY-UHFFFAOYSA-N
Temperature: 313 K
Tabular data in the source: 0
pressure (bar)	uptake (mmol/g)
0.0137359	0.27138
0.0537799	1.56709
0.109555	2.5024
0.15961	2.91428
0.211096	3.19745
0.264011	3.35191
0.321217	3.47204
0.405595	3.60075
0.548609	3.72089
0.621547	3.77237
0.691624	3.81527
0.760271	3.81527
0.830348	3.82386
0.876112	3.83244
0.929027	3.82386
0.999104	3.82386
