Adsorption isotherm of Ethane on ZIF-8
DOI: 10.1002/cite.201300078
Adsorbate Ethane: InChIKey OTMSDBZUPAUEDD-UHFFFAOYSA-N
Temperature: 293 K
Tabular data in the source: 0
pressure (bar)	uptake (mmol/g)
0.0566402	0.1314
0.119566	0.285855
0.15246	0.380244
0.206805	0.521829
0.25686	0.650541
0.304055	0.779254
0.3584	0.929419
0.408455	1.06242
0.479963	1.24262
0.55147	1.43569
0.620117	1.59873
0.685903	1.75747
0.760271	1.91622
0.831778	2.04922
0.881833	2.13932
0.936178	2.23371
1.00339	2.33668
