Adsorption isotherm of N-Butane on ZIF-8
DOI: 10.1002/cite.201300078
Adsorbate N-Butane: InChIKey IJDNQMDRQITEOD-UHFFFAOYSA-N
Temperature: 313 K
Tabular data in the source: 0
pressure (bar)	uptake (mmol/g)
0.0137359	0.537387
0.0566402	2.53673
0.0981143	3.01725
0.168191	3.29184
0.218246	3.39481
0.269731	3.49778
0.35697	3.58359
0.477102	3.66082
0.547179	3.69514
0.615826	3.73805
0.687333	3.72947
0.760271	3.75521
0.828917	3.76379
0.898994	3.75521
0.95191	3.74663
