Adsorption isotherm of Propene on ZIF-8
DOI: 10.1002/cite.201300078
Adsorbate Propene: InChIKey QQONPFPTGQHPMA-UHFFFAOYSA-N
Temperature: 323 K
Tabular data in the source: 0
pressure (bar)	uptake (mmol/g)
0.0126608	0.021203
0.0577312	0.218386
0.108435	0.471907
0.154914	0.718386
0.207027	0.993034
0.25914	1.27472
0.309844	1.50712
0.408435	1.97191
0.480266	2.2043
0.552097	2.42261
0.621112	2.59163
0.695759	2.7536
0.764773	2.86627
0.832379	2.97191
0.933788	3.09163
1.0028	3.14092
