Adsorption isotherm of Ethene on ZIF-8
DOI: 10.1002/cite.201300078
Adsorbate Ethene: InChIKey VGGSQFUCUMXWEO-UHFFFAOYSA-N
Temperature: 303 K
Tabular data in the source: 0
pressure (bar)	uptake (mmol/g)
0.0154777	0.0084812
0.0999848	0.112707
0.153506	0.169045
0.207027	0.225383
0.254914	0.278904
0.307027	0.338059
0.354914	0.388763
0.408435	0.442284
0.478858	0.515523
0.547872	0.580312
0.621112	0.650735
0.690126	0.71834
0.760548	0.780312
0.833788	0.847918
0.884492	0.887354
0.933788	0.929608
