Adsorption isotherm of Ethane on ZIF-8
DOI: 10.1002/cite.201300078
Adsorbate Ethane: InChIKey OTMSDBZUPAUEDD-UHFFFAOYSA-N
Temperature: 313 K
Tabular data in the source: 0
pressure (bar)	uptake (mmol/g)
0.0165962	0.00697713
0.0995445	0.127109
0.15389	0.212918
0.205375	0.281565
0.261151	0.354502
0.305485	0.418858
0.35697	0.496086
0.411316	0.577604
0.484253	0.680574
0.55004	0.770674
0.618686	0.860772
0.690194	0.950872
0.763131	1.04097
0.834638	1.12678
0.883263	1.18685
0.934748	1.24262
0.999104	1.30698
