Adsorption isotherm of Ethane on ZIF-8
DOI: 10.1002/cite.201300078
Adsorbate Ethane: InChIKey OTMSDBZUPAUEDD-UHFFFAOYSA-N
Temperature: 313 K
Tabular data in the source: 0
pressure (bar)	uptake (mmol/g)
0.0566402	0.0826011
0.100975	0.151248
0.15532	0.237057
0.206805	0.305703
0.25829	0.382931
0.302625	0.442997
0.3584	0.528806
0.408455	0.588872
0.477102	0.683261
0.547179	0.786232
0.620117	0.880621
0.688763	0.96643
0.761701	1.0694
0.830348	1.14663
0.880403	1.21527
0.931888	1.25818
1.00339	1.32683
