Adsorption isotherm of Propene on ZIF-8
DOI: 10.1002/cite.201300078
Adsorbate Propene: InChIKey QQONPFPTGQHPMA-UHFFFAOYSA-N
Temperature: 313 K
Tabular data in the source: 0
pressure (bar)	uptake (mmol/g)
0.0140693	0.0423297
0.0549143	0.295851
0.105619	0.655006
0.156323	1.01416
0.209844	1.41557
0.263365	1.76064
0.316886	2.08458
0.360548	2.30289
0.411252	2.5212
0.480266	2.78177
0.553506	2.97895
0.62252	3.13388
0.694351	3.2536
0.764773	3.36627
0.830971	3.42965
0.883083	3.47895
0.938013	3.51416
1.00421	3.55641
