Adsorption isotherm of Argon on Zr-fum MOF (393 k)
DOI: 10.1016/j.micromeso.2014.10.034
Article source: Figure 6
Adsorbate Argon: InChIKey XKRFYHLGVUSROY-UHFFFAOYSA-N
Kind: experiment
Temperature: 77 K
Tabular data in the source: 0
pressure (bar)	uptake (cm3(STP)/g)
0.001287	3.275
0.001419	124.912
0.001419	128.25
0.00151	42.729
0.001581	88.681
0.001601	15.075
0.001672	52.294
0.001814	136.244
0.002077	58.688
0.002776	162.235
0.004367	187.914
0.004529	183.339
0.005168	193.632
0.006535	200.182
0.007569	207.356
0.009575	216.193
0.013345	228.721
0.019353	241.508
0.024885	246.863
0.034197	255.476
0.041199	259.437
0.05049	263.646
0.061433	266.865
0.070208	269.258
0.080766	271.487
0.097181	275.201
0.106604	276.687
0.124924	280.483
0.141673	282.84
0.144712	286.843
0.159708	286.272
0.176457	288.664
0.192335	290.016
0.193855	294.331
0.209804	292.824
0.228164	294.853
0.244274	296.101
0.245875	301.871
0.260871	298.545
0.277782	300.521
0.295413	301.302
0.295818	301.714
0.31201	304.525
0.345751	316.171
0.361072	309.726
0.397214	322.308
0.412616	314.563
0.447725	328.236
0.46263	319.244
0.498914	333.789
0.514468	324.097
0.54982	339.555
0.564563	329.077
0.60031	345.19
0.615063	334.319
0.65081	350.694
0.665563	338.906
0.702922	358.032
0.715253	345.458
0.752916	364.911
0.767061	351.355
0.804936	371.856
0.816142	357.907
0.858243	382.511
0.866258	367.493
0.904427	396.211
0.916393	396.069
0.917538	401.905
0.928482	410.652
0.928735	409.776
0.93828	392.912
0.938695	422.244
0.947358	401.868
0.951918	457.125
0.954725	413.408
0.963783	429.783
0.968748	447.977
0.972598	465.859
