Adsorption isotherm of Methane on Zr-fum MOF (393 k)
DOI: 10.1016/j.micromeso.2014.10.034
Article source: Figure 7
Adsorbate Methane: InChIKey VNWKTOKETHGBQD-UHFFFAOYSA-N
Kind: experiment
Temperature: 298 K
Tabular data in the source: 0
pressure (bar)	uptake (cm3(STP)/g)
0.00994	0.147
0.06192	0.964
0.11405	1.72
0.16611	2.523
0.21645	3.353
0.26879	4.075
0.32256	4.852
0.37358	5.539
0.4262	6.213
0.47881	6.921
0.53034	7.562
0.58548	8.236
0.63845	8.944
0.68927	9.483
0.74296	10.123
0.79377	10.629
0.84567	11.151
0.89882	11.758
0.95071	12.263
0.9999	12.718
