Adsorption isotherm of Carbon Dioxide on Zr-fum MOF (393 k)
DOI: 10.1016/j.micromeso.2014.10.034
Article source: Figure 7
Adsorbate Carbon Dioxide: InChIKey CURLTUGMZLYLDI-UHFFFAOYSA-N
Kind: experiment
Temperature: 298 K
Tabular data in the source: 0
pressure (bar)	uptake (cm3(STP)/g)
0.03703	16.861
0.04011	17.358
0.0619	5.334
0.06556	20.149
0.08764	7.374
0.09015	22.86
0.11308	9.522
0.11473	25.41
0.13882	11.561
0.14104	27.637
0.16312	13.44
0.1662	29.784
0.18943	15.265
0.19108	31.771
0.21459	17.037
0.21652	33.569
0.23889	18.701
0.24226	35.367
0.26463	20.392
0.26742	37.058
0.29008	22.002
0.29173	38.669
0.31467	23.586
0.31746	40.145
0.3404	25.17
0.3432	41.648
0.36585	26.646
0.3675	43.071
0.39102	28.149
0.3941	44.332
0.41675	29.679
0.4184	45.701
0.44192	31.155
0.44414	46.909
0.46708	32.658
0.46902	48.063
0.49139	34.081
0.49476	49.271
0.51827	35.503
0.51992	50.425
0.54286	37.033
0.54423	51.418
0.56745	38.456
0.57083	52.492
0.59376	40.039
0.59599	53.539
0.61864	41.328
0.6203	54.371
0.6438	42.938
0.64575	55.337
0.66982	44.146
0.67178	56.277
0.69413	45.73
0.69666	57.055
0.71958	47.126
0.72154	57.861
0.7456	48.548
0.74728	58.585
0.77019	49.997
0.77301	59.337
0.79593	51.447
0.79704	51.93
0.82023	52.896
0.82249	60.411
0.84654	54.212
0.8488	61.055
0.87142	55.607
0.87311	61.592
0.89773	62.009
0.89828	62.102
0.92261	58.372
0.92345	62.72
0.94663	60.063
0.94919	62.827
0.97265	61.324
0.97407	63.284
0.99839	62.747
1.00868	64.035
