Adsorption isotherm of Hydrogen on Zr-fum MOF (393 k)
DOI: 10.1016/j.micromeso.2014.10.034
Article source: Figure 7
Adsorbate Hydrogen: InChIKey UFHFLCQGNIYNRP-UHFFFAOYSA-N
Kind: experiment
Temperature: 77 K
Tabular data in the source: 0
pressure (bar)	uptake (cm3(STP)/g)
0.00972	0.5785
0.01073	0.6398
0.01303	0.725
0.01418	0.7849
0.01663	0.8994
0.02311	1.1298
0.03281	1.4336
0.04296	1.6819
0.05275	1.905
0.05547	1.9453
0.07391	2.3202
0.09449	2.6398
0.10283	2.7637
0.14359	3.2691
0.1503	3.3446
0.19309	3.7708
0.20233	3.8614
0.24367	4.1735
0.25527	4.2691
0.29353	4.5091
0.30758	4.6031
0.34384	4.812
0.35834	4.8992
0.39496	5.0746
0.41091	5.1493
0.44463	5.2827
0.46213	5.3507
0.49576	5.464
0.51407	5.5228
0.54634	5.6503
0.56401	5.7183
0.59661	5.833
0.61495	5.899
0.64812	5.9729
0.66726	6.0176
0.69704	6.0789
0.71841	6.1182
0.74927	6.2008
0.76848	6.2528
0.7992	6.3041
0.82043	6.3421
0.84935	6.4054
0.87021	6.4474
0.89956	6.4721
0.92172	6.4961
0.95	6.5348
0.97259	6.5574
1.00856	6.6281
