Adsorption isotherm of Hydrogen on Zr-fum MOF (393 k)
DOI: 10.1016/j.micromeso.2014.10.034
Article source: Figure 7
Adsorbate Hydrogen: InChIKey UFHFLCQGNIYNRP-UHFFFAOYSA-N
Kind: experiment
Temperature: 87 K
Tabular data in the source: 0
pressure (bar)	uptake (cm3(STP)/g)
0.00906	0.203
0.01826	0.3315
0.02322	0.41
0.03523	0.597
0.04529	0.7335
0.05299	0.8213
0.05924	0.8946
0.0771	1.0958
0.09069	1.2241
0.10583	1.3726
0.14064	1.6895
0.15262	1.7825
0.19212	2.0546
0.20506	2.1318
0.24447	2.3554
0.25712	2.4193
0.30703	2.7015
0.34313	2.8532
0.36154	2.9251
0.39605	3.1167
0.409	3.1846
0.45416	3.323
0.46523	3.3656
0.49413	3.4913
0.51234	3.5659
0.54872	3.6702
0.56505	3.7167
0.60808	3.8413
0.61642	3.8624
0.64743	3.9926
0.66428	4.0588
0.70944	4.17
0.71779	4.1887
0.74684	4.2519
0.77021	4.2698
0.81012	4.4082
0.81825	4.4361
0.84946	4.518
0.86866	4.5719
0.91037	4.6171
0.92288	4.6344
0.94863	4.7588
0.96919	4.7934
1.01155	4.78
