Adsorption isotherm of Hydrogen on Zr-fum MOF (393 k)
DOI: 10.1016/j.micromeso.2014.10.034
Article source: Figure 7
Adsorbate Hydrogen: InChIKey UFHFLCQGNIYNRP-UHFFFAOYSA-N
Kind: experiment
Temperature: 97 K
Tabular data in the source: 0
pressure (bar)	uptake (cm3(STP)/g)
0.01445	0.0998
0.0229	0.1706
0.03751	0.2774
0.04676	0.3355
0.05989	0.4179
0.07918	0.53
0.10377	0.6642
0.10903	0.697
0.14127	0.8597
0.15623	0.9389
0.20371	1.1524
0.20828	1.1767
0.24233	1.2975
0.25923	1.3621
0.30282	1.5147
0.31088	1.5272
0.34386	1.6379
0.36034	1.7033
0.40302	1.8409
0.41171	1.8694
0.44433	1.9624
0.46317	2.0228
0.50529	2.1321
0.51349	2.1514
0.54549	2.2319
0.56497	2.2831
0.6061	2.3723
0.61617	2.3909
0.64709	2.4641
0.6671	2.5024
0.70605	2.6013
0.7172	2.6281
0.7466	2.6944
0.76746	2.7409
0.80787	2.8288
0.81923	2.8487
0.84885	2.9006
0.86999	2.9339
0.909	2.9925
0.92121	3.0031
0.95157	3.0432
0.97222	3.0715
1.00827	3.1494
