Adsorption isotherm of Carbon Dioxide on Carbon
DOI: 10.1016/S1003-9953(06)60030-3
Adsorbate Carbon Dioxide: InChIKey CURLTUGMZLYLDI-UHFFFAOYSA-N
Temperature: 333 K
Tabular data in the source: 0
pressure (bar)	uptake (ml/g)
0.000735294	0.0980392
0.0405431	4.01961
0.101281	6.07843
0.144281	7.0098
0.216977	8.03922
0.294118	9.21569
0.354965	9.80392
