Adsorption isotherm of Carbon Dioxide on Carbon
DOI: 10.1016/S1003-9953(06)60030-3
Adsorbate Carbon Dioxide: InChIKey CURLTUGMZLYLDI-UHFFFAOYSA-N
Temperature: 333 K
Tabular data in the source: 0
pressure (bar)	uptake (ml/g)
0.000722559	0.0986408
0.0414546	3.79991
0.0825642	4.93967
0.144962	6.67405
0.25384	8.1205
