Adsorption isotherm of Carbon Dioxide on Carbon
DOI: 10.1016/S1003-9953(06)60030-3
Adsorbate Carbon Dioxide: InChIKey CURLTUGMZLYLDI-UHFFFAOYSA-N
Temperature: 313 K
Tabular data in the source: 0
pressure (bar)	uptake (ml/g)
0.000735294	0.0980392
0.0389997	4.80392
0.0797285	6.32353
0.147878	8.57843
0.192367	9.46078
0.263592	10.2941
0.374141	11.5686
