Adsorption isotherm of Carbon Dioxide on Carbon
DOI: 10.1016/S1003-9953(06)60030-3
Adsorbate Carbon Dioxide: InChIKey CURLTUGMZLYLDI-UHFFFAOYSA-N
Temperature: 333 K
Tabular data in the source: 0
pressure (bar)	uptake (ml/g)
0.000733116	0.0497038
0.0426276	1.79735
0.0830558	3.44559
0.154338	6.53997
0.367214	10.6911
