Adsorption isotherm of Carbon Dioxide on Carbon
DOI: 10.1016/S1003-9953(06)60030-3
Adsorbate Carbon Dioxide: InChIKey CURLTUGMZLYLDI-UHFFFAOYSA-N
Temperature: 303 K
Tabular data in the source: 0
pressure (bar)	uptake (ml/g)
0.000722559	0.0986408
0.0397335	5.4745
0.0880033	8.04401
0.136462	9.33275
0.194488	10.7216
0.251026	12.2087
0.313482	13.549
