Adsorption isotherm of Carbon Dioxide on Carbon
DOI: 10.1016/S1003-9953(06)60030-3
Adsorbate Carbon Dioxide: InChIKey CURLTUGMZLYLDI-UHFFFAOYSA-N
Temperature: 323 K
Tabular data in the source: 0
pressure (bar)	uptake (ml/g)
0.000722559	0.0986408
0.0413674	4.39103
0.0810029	5.53054
0.12066	6.52228
0.159566	7.61241
0.201478	8.30895
0.27056	9.6996
