Adsorption isotherm of Carbon Dioxide on Carbon
DOI: 10.1016/S1003-9953(06)60030-3
Adsorbate Carbon Dioxide: InChIKey CURLTUGMZLYLDI-UHFFFAOYSA-N
Temperature: 303 K
Tabular data in the source: 0
pressure (bar)	uptake (ml/g)
0.050061	5.84552
0.117451	8.32237
0.167856	9.53368
0.229415	10.5481
0.289495	11.4651
0.367412	12.1842
