Adsorption isotherm of Carbon Dioxide on Carbon
DOI: 10.1016/S1003-9953(06)60030-3
Adsorbate Carbon Dioxide: InChIKey CURLTUGMZLYLDI-UHFFFAOYSA-N
Temperature: 313 K
Tabular data in the source: 0
pressure (bar)	uptake (ml/g)
0.000733116	0.0497038
0.0469534	2.83567
0.0976356	5.27844
0.140273	6.97711
0.177031	8.42617
0.239603	10.036
0.301466	11.3494
