Adsorption isotherm of Carbon Dioxide on Carbon
DOI: 10.1016/S1003-9953(06)60030-3
Adsorbate Carbon Dioxide: InChIKey CURLTUGMZLYLDI-UHFFFAOYSA-N
Temperature: 313 K
Tabular data in the source: 0
pressure (bar)	uptake (ml/g)
0.000722559	0.0986408
0.0375585	5.22784
0.0800189	7.20526
0.132871	8.69177
0.182847	9.6852
0.239407	11.0245
