Adsorption isotherm of Nitrogen on IM-19
DOI: 10.1039/B822163d
Adsorbate Nitrogen: InChIKey IJGRMHOSHXDMSA-UHFFFAOYSA-N
Temperature: 77 K
Tabular data in the source: 0
pressure (bar)	uptake (cm3(STP)/g)
0.00948003	7.00911
0.044438	9.92227
0.0779394	19.827
0.115811	37.8887
0.17553	86.2472
0.211945	125.866
0.260012	185.295
0.313906	234.236
0.348864	252.88
0.443542	282.012
0.544046	293.665
0.646007	302.404
0.797491	307.648
0.94315	312.891
0.970825	316.97
0.988304	321.048
