Adsorption isotherm of Nitrogen on MIL-53(Al)
DOI: 10.1039/B822163d
Adsorbate Nitrogen: InChIKey IJGRMHOSHXDMSA-UHFFFAOYSA-N
Temperature: 77 K
Tabular data in the source: 0
pressure (bar)	uptake (cm3(STP)/g)
0	195.782
0	317.553
0	336.197
0.00219712	249.384
0.0123932	351.928
0.0590038	362.998
0.140572	364.746
0.197379	366.494
0.29934	369.407
0.444998	371.737
0.548416	372.32
0.696987	372.903
0.848472	374.068
0.940236	375.816
0.975194	378.146
0.991217	382.225
