Adsorption isotherm of Nitrogen on MIL-53(Cr)
DOI: 10.1039/B822163d
Adsorbate Nitrogen: InChIKey IJGRMHOSHXDMSA-UHFFFAOYSA-N
Temperature: 77 K
Tabular data in the source: 0
pressure (bar)	uptake (cm3(STP)/g)
0	7.59174
0.0036537	259.872
0.00511028	117.709
0.00511028	312.309
0.00656687	187.625
0.0182195	325.709
0.061917	332.701
0.137659	338.527
0.24836	340.275
0.35032	342.606
0.497435	344.354
0.643093	346.684
0.747967	348.432
0.847015	350.18
0.94315	351.928
0.981021	359.502
0.986847	364.746
