Adsorption isotherm of Isooctane on MCM-36-IL
DOI: 10.1007/s10450-018-9935-4
Article source: Figure 8
Adsorbate Isooctane: InChIKey NHTMVDHEPJAVLT-UHFFFAOYSA-N
Kind: experiment
Temperature: 303 K
Tabular data in the source: 0
pressure (bar)	uptake (mmol/g)
0.005	0.132961
0.01	0.404469
0.015	0.516201
0.02	0.573184
0.025091	0.612291
0.030091	0.644693
0.035091	0.672626
0.039636	0.706145
0.050091	0.753073
