Adsorption isotherm of Isooctane on MCM-36
DOI: 10.1007/s10450-018-9935-4
Article source: Figure 7
Adsorbate Isooctane: InChIKey NHTMVDHEPJAVLT-UHFFFAOYSA-N
Kind: experiment
Temperature: 323 K
Tabular data in the source: 0
pressure (bar)	uptake (mmol/g)
0.004975	0.059486
0.009865	0.240711
0.015008	0.499407
0.019983	0.679249
0.029933	0.904743
0.039966	1.01127
0.050084	1.08044
0.059949	1.1413
0.069899	1.19249
0.079933	1.21878
0.089966	1.25336
0.09941	1.29348
