Adsorption isotherm of Isooctane on MCM-36-IL
DOI: 10.1007/s10450-018-9935-4
Article source: Figure 8
Adsorbate Isooctane: InChIKey NHTMVDHEPJAVLT-UHFFFAOYSA-N
Kind: experiment
Temperature: 323 K
Tabular data in the source: 0
pressure (bar)	uptake (mmol/g)
0.005091	0.072626
0.010182	0.253631
0.015091	0.414525
0.020182	0.50838
0.030182	0.6
0.04	0.678212
0.050182	0.72514
0.060091	0.762011
0.069909	0.792179
0.08	0.821229
0.09	0.848045
0.098818	0.877095
