Adsorption isotherm of Nitrogen on MCM-36
DOI: 10.1007/s10450-018-9935-4
Article source: Figure 6a
Adsorbate Nitrogen: InChIKey IJGRMHOSHXDMSA-UHFFFAOYSA-N
Kind: experiment
Temperature: 77 K
Tabular data in the source: 0
pressure (bar)	uptake (cm3(STP)/g)
0.002449	68.0934
0.003266	77.9669
0.004082	15.6615
0.004082	29.9611
0.004082	42.8988
0.004082	58.5603
0.004082	86.4786
0.007348	95.3307
0.010614	101.459
0.032659	115.759
0.066135	129.718
0.10206	140.272
0.142067	149.465
0.182891	157.296
0.255207	169.634
0.305641	175.034
0.361528	178.728
0.404465	182.423
0.456262	184.697
0.506015	187.539
0.555768	190.096
0.606884	192.938
0.657318	195.78
0.708434	199.475
0.758868	203.454
0.807939	208.001
0.83043	210.275
0.860418	213.969
0.884954	217.948
0.910171	223.064
0.935388	229.6
0.960605	239.831
0.986504	256.315
0.996046	267.683
0.078687	133.825
0.105267	142.351
0.145478	151.729
0.202728	163.382
0.319954	177.307
0.462396	188.107
0.507378	199.191
0.557131	202.601
0.608247	206.58
0.659363	209.422
0.709797	213.969
0.761594	218.516
0.80385	222.779
0.857692	229.884
0.908808	239.547
0.945611	250.915
0.984459	275.641
1.00831	297.524
