Adsorption isotherm of Isooctane on MCM-36-IL
DOI: 10.1007/s10450-018-9935-4
Article source: Figure 9
Adsorbate Isooctane: InChIKey NHTMVDHEPJAVLT-UHFFFAOYSA-N
Kind: experiment
Temperature: 343 K
Tabular data in the source: 0
pressure (bar)	uptake (mmol/g)
0.004885	0.038576
0.009862	0.159816
0.014839	0.27279
0.019816	0.352698
0.029862	0.472101
0.039816	0.548335
0.049862	0.598852
0.059816	0.637428
0.069862	0.675086
0.079816	0.698967
0.08977	0.725603
0.099263	0.743972
0	0.062457
0.004793	0.221355
0.009862	0.332491
0.014839	0.405052
0.019908	0.464753
0.02977	0.548335
0.039816	0.607118
0.049862	0.644776
0.059816	0.673249
0.069862	0.695293
0.079816	0.716418
0.089862	0.732032
