Adsorption isotherm of Isooctane on MCM-36
DOI: 10.1007/s10450-018-9935-4
Article source: Figure 9
Adsorbate Isooctane: InChIKey NHTMVDHEPJAVLT-UHFFFAOYSA-N
Kind: experiment
Temperature: 343 K
Tabular data in the source: 0
pressure (bar)	uptake (mmol/g)
0	0
0.004885	0.057865
0.009954	0.16992
0.014931	0.286567
0.019816	0.384845
0.029954	0.526292
0.039724	0.621814
0.049954	0.683352
0.059724	0.724684
0.069862	0.755913
0.079816	0.785304
0.089862	0.804592
0.099263	0.828473
-9.2e-05	0.091848
0.004885	0.241561
0.009862	0.361883
0.014839	0.451894
0.019816	0.51527
0.029862	0.613548
0.039816	0.679679
0.049862	0.723766
0.059724	0.755913
0.069862	0.780712
0.079908	0.8
0.089862	0.815614
