Adsorption isotherm of Nitrogen on MCM-36-IL
DOI: 10.1007/s10450-018-9935-4
Article source: Figure 6a
Adsorbate Nitrogen: InChIKey IJGRMHOSHXDMSA-UHFFFAOYSA-N
Kind: experiment
Temperature: 77 K
Tabular data in the source: 0
pressure (bar)	uptake (cm3(STP)/g)
0.004399	49.7016
0.014622	64.1958
0.026208	68.743
0.038476	73.2902
0.050744	77.269
0.076642	83.5214
0.108675	88.9212
0.126395	92.0474
0.150249	95.742
0.176148	99.1524
0.202728	101.994
0.252481	106.826
0.307004	110.236
0.360165	113.078
0.403784	115.636
0.452855	117.341
0.504652	120.183
0.554405	122.457
0.605521	125.015
0.655955	127.572
0.706389	130.699
0.756142	133.541
0.805895	137.804
0.85701	143.203
0.9054	150.877
0.922439	154.571
0.935388	157.982
0.946974	161.108
0.957879	165.087
0.966058	169.35
0.974918	174.181
0.981733	179.581
0.987867	184.697
0.993319	190.381
1.00013	196.349
1.00559	201.749
0.025526	73.2902
0.037113	77.269
0.052107	81.8162
0.078005	88.0686
0.101178	92.0474
0.125032	96.3104
0.154338	100.573
0.204773	105.973
0.255888	110.52
0.307004	113.931
0.341763	115.92
0.401057	119.046
0.461033	122.741
0.508741	132.404
0.559176	134.962
0.610291	137.804
0.66277	140.646
0.713205	144.056
0.765684	147.466
0.813392	152.014
0.862463	157.982
0.912897	166.224
0.925846	168.781
0.936751	171.339
0.948337	174.75
0.958561	178.16
0.966739	181.57
0.973555	185.265
0.981733	189.528
0.98923	196.633
0.995364	201.749
1.00218	208.001
1.00831	213.969
