Adsorption isotherm of Isooctane on MCM-36
DOI: 10.1007/s10450-018-9935-4
Article source: Figure 7
Adsorbate Isooctane: InChIKey NHTMVDHEPJAVLT-UHFFFAOYSA-N
Kind: experiment
Temperature: 303 K
Tabular data in the source: 0
pressure (bar)	uptake (mmol/g)
0.004975	0.232411
0.010034	0.693083
0.015008	0.904743
0.019899	0.991897
0.024958	1.04585
0.029933	1.08597
0.034907	1.12194
0.039966	1.1579
0.050084	1.22707
