Adsorption isotherm of Nitrogen on I2@FL-COF-1
DOI: 10.1021/acsami.6b14916
Article source: Figure S6
Adsorbate Nitrogen: InChIKey IJGRMHOSHXDMSA-UHFFFAOYSA-N
Kind: experiment
Temperature: 77 K
Tabular data in the source: 0
pressure (bar)	uptake (cm3(STP)/g)
0.008084	0.722022
0.021559	1.29964
0.051201	1.73285
0.07815	2.16606
0.097013	2.74368
0.121267	3.17689
0.15091	3.4657
0.177858	3.89892
0.202111	4.47653
0.229059	4.62094
0.250618	5.05415
0.272176	5.48736
0.304514	5.92058
0.328767	6.20939
0.35841	6.4982
0.377274	7.07581
0.401527	7.36462
0.428475	7.79783
0.455424	7.94224
0.482372	8.37545
0.501235	8.51986
0.525489	9.09747
0.555132	9.53069
0.584775	9.9639
0.606333	10.2527
0.638671	10.5415
0.657535	10.8303
0.679093	11.1191
0.711431	11.5523
0.735684	12.13
0.757243	12.13
0.78958	13.1408
0.811139	13.4296
0.835392	14.0072
0.86234	14.296
0.886594	14.7292
0.916237	15.1625
0.9351	15.4513
0.962049	16.8953
0.986302	18.1949
1.00517	23.3935
0.983607	18.6282
0.959354	17.1841
0.937795	16.1733
0.905457	16.0289
0.886594	15.5957
0.854256	15.0181
0.832697	14.4404
0.811139	14.1516
0.781496	13.7184
0.757243	13.1408
0.735684	12.852
0.708736	12.4188
0.681788	11.8412
0.657535	11.4079
0.635976	11.1191
0.606333	10.9747
0.57669	10.8303
0.557826	10.5415
0.530878	10.1083
0.50393	9.67509
0.476982	9.09747
0.452729	8.51986
0.43117	8.23105
0.401527	7.50903
0.379969	7.36462
0.355715	6.787
0.328767	6.4982
0.304514	6.06498
0.274871	5.77617
0.253312	5.48736
0.231754	5.05415
0.202111	4.90975
0.175163	4.33213
0.153604	3.89892
0.121267	3.4657
0.102403	3.03249
0.07276	2.59928
0.051201	2.16606
0.024253	1.44404
