Adsorption isotherm of Nitrogen on FL-COF-1
DOI: 10.1021/acsami.6b14916
Article source: Figure 4
Adsorbate Nitrogen: InChIKey IJGRMHOSHXDMSA-UHFFFAOYSA-N
Kind: experiment
Temperature: 77 K
Tabular data in the source: 0
pressure (bar)	uptake (cm3(STP)/g)
0.00936	183.951
0.01638	204.938
0.028081	233.333
0.037441	254.321
0.051482	275.309
0.102963	318.519
0.154445	337.037
0.205926	345.679
0.252727	351.852
0.304209	358.025
0.35335	361.728
0.409512	367.901
0.430573	367.901
0.460994	371.605
0.482054	376.543
0.510135	376.543
0.556936	377.778
0.606078	383.951
0.657559	385.185
0.706701	387.654
0.758182	391.358
0.812004	396.296
0.868166	401.235
0.912627	401.235
0.938368	406.173
0.961768	406.173
0.992189	412.346
0.938368	404.938
0.886886	400
0.837745	398.765
0.800304	396.296
0.748822	395.062
0.692661	391.358
0.650539	390.123
0.596718	386.42
0.552256	383.951
0.498435	382.716
0.482054	381.481
0.460994	381.481
0.414192	377.778
0.404832	376.543
0.34633	375.309
0.297189	367.901
0.245707	365.432
0.191886	356.79
0.145084	351.852
