Adsorption isotherm of Hydrogen on {[Cu2(4-pmpmd)2(CH3OH)4(opd)2]*2H2O}
DOI: 10.1021/Cg3017563
Adsorbate Hydrogen: InChIKey UFHFLCQGNIYNRP-UHFFFAOYSA-N
Temperature: 77 K
Tabular data in the source: 0
pressure (bar)	uptake (cm3(STP)/g)
0.0294675	0.0895568
0.0795225	0.375585
0.15532	0.804628
0.201085	0.804628
0.301195	1.37669
0.404165	1.80573
0.499985	2.5208
0.601525	2.66381
0.703065	3.09286
0.800315	3.66491
0.85466	4.09396
0.906145	4.09396
0.95477	4.37999
0.993384	4.523
