Adsorption isotherm of 2-Propanol on {[Cu2(4-pmpmd)2(CH3OH)4(opd)2]*2H2O}
DOI: 10.1021/Cg3017563
Adsorbate 2-Propanol: InChIKey KFZMGEQAYNKOFK-UHFFFAOYSA-N
Temperature: 298 K
Tabular data in the source: 0
pressure (bar)	uptake (cm3(STP)/g)
0.15914	3.67188
0.252097	1.8409
0.294351	0.925402
0.345055	0.925402
0.399985	1.8409
0.450689	1.8409
0.499985	1.8409
0.553506	1.8409
0.650689	2.75639
0.749281	3.67188
0.847872	3.67188
0.949281	4.58737
