Adsorption isotherm of Carbon Dioxide on {[Cu2(4-pmpmd)2(CH3OH)4(opd)2]*2H2O}
DOI: 10.1021/Cg3017563
Adsorbate Carbon Dioxide: InChIKey CURLTUGMZLYLDI-UHFFFAOYSA-N
Temperature: 195 K
Tabular data in the source: 0
pressure (bar)	uptake (cm3(STP)/g)
0.00372489	10.3866
0.00515504	17.2513
0.00515504	25.5461
0.00944547	35.2711
0.0165962	41.2777
0.0380483	47.7133
0.0666512	52.8618
0.102405	56.1512
0.211096	62.0147
0.305485	65.1611
0.505705	69.8805
0.708785	73.4559
0.808895	75.0291
0.910436	77.0312
0.990524	84.468
