Adsorption isotherm of Benzene on {[Cu2(4-pmpmd)2(CH3OH)4(opd)2]*2H2O}
DOI: 10.1021/Cg3017563
Adsorbate Benzene: InChIKey UHOVQNZJYSORNB-UHFFFAOYSA-N
Temperature: 298 K
Tabular data in the source: 0
pressure (bar)	uptake (cm3(STP)/g)
0.00984391	8.24935
0.109844	10.0803
0.207027	10.9958
0.307027	10.0803
0.399985	10.9958
0.452097	10.0803
0.601393	11.9113
0.698576	10.9958
0.752097	11.9113
0.845055	11.9113
0.874633	11.9113
0.928154	10.0803
0.95914	10.9958
