Adsorption isotherm of 1-Propanol on {[Cu2(4-pmpmd)2(CH3OH)4(opd)2]*2H2O}
DOI: 10.1021/Cg3017563
Adsorbate 1-Propanol: InChIKey BDERNNFJNOPAEC-UHFFFAOYSA-N
Temperature: 298 K
Tabular data in the source: 0
pressure (bar)	uptake (cm3(STP)/g)
0.0295622	0.00990937
0.183083	1.8409
0.268999	1.8409
0.326745	10.0803
0.371816	11.9113
0.432379	14.6578
0.501393	14.6578
0.60421	17.4043
0.702802	21.9817
0.749281	25.6437
0.802802	42.1226
0.854914	48.531
0.946464	65.0099
