Adsorption isotherm of Nitrogen on {[Cu2(4-pmpmd)2(CH3OH)4(opd)2]*2H2O}
DOI: 10.1021/Cg3017563
Adsorbate Nitrogen: InChIKey IJGRMHOSHXDMSA-UHFFFAOYSA-N
Temperature: 77 K
Tabular data in the source: 0
pressure (bar)	uptake (cm3(STP)/g)
0.0509196	3.09286
0.115276	4.09396
0.15675	4.23697
0.25686	4.66601
0.35554	4.95204
0.45565	5.09506
0.55862	5.5241
0.65444	5.95314
0.75455	6.5252
0.85466	7.24027
0.906145	7.95534
0.95048	9.38549
0.987663	11.9597
