Adsorption isotherm of Water on {[Cu2(4-pmpmd)2(CH3OH)4(opd)2]*2H2O}
DOI: 10.1021/Cg3017563
Adsorbate Water: InChIKey XLYOFNOQVPJJNP-UHFFFAOYSA-N
Temperature: 298 K
Tabular data in the source: 0
pressure (bar)	uptake (cm3(STP)/g)
0.0112524	1.8409
0.0802664	4.58737
0.153506	10.9958
0.236604	25.6437
0.315478	42.1226
0.370407	85.1508
0.392942	123.601
0.476041	151.066
0.602802	162.968
0.702802	173.038
0.797168	188.601
0.852097	200.503
0.899985	222.475
0.949281	280.151
