Adsorption isotherm of Methanol on {[Cu2(4-pmpmd)2(CH3OH)4(opd)2]*2H2O}
DOI: 10.1021/Cg3017563
Adsorbate Methanol: InChIKey OKKJLVBELUTLKV-UHFFFAOYSA-N
Temperature: 298 K
Tabular data in the source: 0
pressure (bar)	uptake (cm3(STP)/g)
0.00421011	0.905584
0.0830833	0.925402
0.132379	24.7282
0.211252	61.3479
0.295759	90.6437
0.36759	108.954
0.452097	130.925
0.549281	159.306
0.654914	200.503
0.749281	248.109
0.850689	325.925
0.902802	404.658
0.930971	493.461
0.950689	579.517
