Adsorption isotherm of Ethanol on {[Cu2(4-pmpmd)2(CH3OH)4(opd)2]*2H2O}
DOI: 10.1021/Cg3017563
Adsorbate Ethanol: InChIKey LFQSCWFLJHTTHZ-UHFFFAOYSA-N
Temperature: 298 K
Tabular data in the source: 0
pressure (bar)	uptake (cm3(STP)/g)
0.063365	10.9958
0.149281	16.4888
0.250689	29.3057
0.307027	108.954
0.356323	129.094
0.405619	138.249
0.50421	147.404
0.60421	155.644
0.705619	164.799
0.798576	170.292
0.856323	178.531
0.90421	191.348
0.929562	206.911
0.950689	242.616
