Adsorption isotherm of Hydrogen on MOF-177
DOI: 10.1016/j.ijhydene.2008.09.053
Adsorbate Hydrogen: InChIKey UFHFLCQGNIYNRP-UHFFFAOYSA-N
Temperature: 297 K
Tabular data in the source: 0
pressure (bar)	uptake (wt%)
0.148352	0.118343
0.184615	1.0355
0.257143	1.92308
0.349451	2.51479
0.412088	2.89941
0.478022	3.19527
0.524176	3.28402
0.652747	3.60947
0.741758	3.78698
0.807692	3.90533
0.853846	3.99408
0.946154	4.11243
0.965934	4.20118
1.01209	4.23077
1.07473	4.26036
