Adsorption isotherm of Nitrogen on MOF-177
DOI: 10.1016/j.ijhydene.2008.09.053
Adsorbate Nitrogen: InChIKey IJGRMHOSHXDMSA-UHFFFAOYSA-N
Temperature: 77 K
Tabular data in the source: 0
pressure (bar)	uptake (cm3(STP)/g)
0.00413184	141.649
0.00422642	62.4824
0.00617785	229.141
0.00812927	395.799
0.00824377	299.966
0.0101603	495.791
0.0142573	666.607
0.0162237	820.766
0.0202311	1066.58
0.0204352	895.748
0.0264288	1279.06
0.0284201	1412.38
0.0284898	1354.05
0.0390932	1479
0.0562179	1545.6
0.0798391	1574.67
0.109922	1595.38
0.14001	1611.92
0.189447	1632.54
0.204501	1632.48
0.262551	1644.74
0.307693	1661.22
0.348548	1665.21
0.387258	1665.05
0.425958	1673.23
0.481867	1677.16
0.524873	1681.15
0.602283	1689.16
0.64959	1693.13
0.686149	1692.97
0.724854	1696.98
0.761419	1692.66
0.787215	1700.89
0.819473	1700.75
0.840979	1700.66
0.868936	1700.55
0.892587	1704.61
0.929146	1704.46
0.954953	1704.35
0.976449	1712.6
0.991512	1704.2
