Adsorption isotherm of Hydrogen on MOF-177
DOI: 10.1016/j.ijhydene.2008.09.053
Adsorbate Hydrogen: InChIKey UFHFLCQGNIYNRP-UHFFFAOYSA-N
Temperature: 77 K
Tabular data in the source: 0
pressure (bar)	uptake (wt%)
4.7619	3.90252
6.08466	4.57503
7.67196	5.18002
8.99471	5.78519
10.0529	6.39054
11.6402	6.92819
13.4921	7.533
15.0794	8.07065
16.9312	8.54079
19.0476	9.14542
21.164	9.54804
24.6032	10.2191
26.9841	10.5542
29.6296	11.0238
32.0106	11.2916
34.9206	11.6263
37.3016	11.8267
40.2116	12.0941
42.5926	12.2946
44.9735	12.495
47.3545	12.628
55.0265	13.1616
57.4074	13.2273
60.0529	13.3602
62.6984	13.4931
65.0794	13.5589
67.4603	13.6919
70.1058	13.8248
72.7513	13.8904
75.3968	13.956
78.0423	14.0215
80.4233	14.1546
83.0688	14.1528
85.4497	14.2186
88.0952	14.2841
90.2116	14.4174
92.8571	14.4156
95.2381	14.4813
97.8836	14.5469
