Adsorption isotherm of Hydrogen on MOF-177
DOI: 10.1016/j.ijhydene.2008.09.053
Adsorbate Hydrogen: InChIKey UFHFLCQGNIYNRP-UHFFFAOYSA-N
Temperature: 195 K
Tabular data in the source: 0
pressure (bar)	uptake (wt%)
0.0164835	2.60355
0.125275	5.14793
0.178022	5.53254
0.26044	5.91716
0.323077	6.18343
0.395604	6.39053
0.464835	6.53846
0.527473	6.68639
0.593407	6.80473
0.652747	6.92308
0.718681	7.01183
0.794505	7.13018
0.86044	7.18935
0.923077	7.27811
0.969231	7.36686
1.00879	7.36686
1.05165	7.39645
