Adsorption isotherm of Hydrogen on MOF-177
DOI: 10.1016/j.ijhydene.2008.09.053
Adsorbate Hydrogen: InChIKey UFHFLCQGNIYNRP-UHFFFAOYSA-N
Temperature: 297 K
Tabular data in the source: 0
pressure (bar)	uptake (wt%)
10	0.138959
20.2439	0.212089
30.122	0.285229
40.122	0.354568
