Adsorption isotherm of Hydrogen on MOF-177
DOI: 10.1016/j.ijhydene.2008.09.053
Adsorbate Hydrogen: InChIKey UFHFLCQGNIYNRP-UHFFFAOYSA-N
Temperature: 297 K
Tabular data in the source: 0
pressure (bar)	uptake (wt%)
0.121951	0.00126239
0.853659	0.0101026
1.58537	0.0202086
2.43902	0.0303111
3.17073	0.0404171
3.90244	0.0505231
4.63415	0.0606291
5.36585	0.0707351
6.09756	0.0795753
6.82927	0.0896813
7.56098	0.0997873
8.29268	0.109893
9.02439	0.119999
9.7561	0.130105
10.8537	0.141467
11.8293	0.149034
12.6829	0.157871
13.6585	0.165439
15.8537	0.184364
16.8293	0.191932
17.6829	0.200768
18.6585	0.208336
19.5122	0.215907
19.878	0.219694
20.8537	0.227262
21.8293	0.234829
22.8049	0.241131
23.7805	0.248698
25.3659	0.260046
26.2195	0.268883
27.3171	0.275181
28.2927	0.282748
29.2683	0.28905
31.4634	0.305444
32.439	0.313012
33.5366	0.31931
34.5122	0.326877
35.4878	0.333179
36.5854	0.339477
37.561	0.347045
38.5366	0.354612
39.5122	0.360914
