Adsorption isotherm of Hydrogen on MOF-177
DOI: 10.1016/j.ijhydene.2008.09.053
Adsorbate Hydrogen: InChIKey UFHFLCQGNIYNRP-UHFFFAOYSA-N
Temperature: 77 K
Tabular data in the source: 0
pressure (bar)	uptake (wt%)
0.00659341	1.86391
0.0131868	3.40237
0.0164835	3.69822
0.125275	5.88757
0.181319	6.2426
0.210989	6.39053
0.257143	6.56805
0.326374	6.77515
0.362637	6.89349
0.395604	6.98225
0.474725	7.10059
0.524176	7.21893
0.59011	7.30769
0.652747	7.39645
0.705495	7.51479
0.741758	7.54438
0.787912	7.57396
0.850549	7.66272
0.91978	7.72189
0.965934	7.75148
1.01209	7.81065
1.05165	7.81065
