Adsorption isotherm of Hydrogen on MOF-177
DOI: 10.1016/j.ijhydene.2008.09.053
Adsorbate Hydrogen: InChIKey UFHFLCQGNIYNRP-UHFFFAOYSA-N
Temperature: 77 K
Tabular data in the source: 0
pressure (bar)	uptake (wt%)
0.529101	0.269004
1.32275	0.94187
2.1164	1.5474
2.91005	2.22026
3.7037	2.82579
4.7619	3.49848
6.34921	4.30549
7.93651	4.84314
9.78836	5.38061
11.3757	5.85093
13.2275	6.32106
15.0794	6.79119
16.9312	7.26133
19.0476	7.66394
20.3704	7.99975
22.4868	8.40237
24.6032	8.80498
26.455	9.20777
28.836	9.61021
30.9524	9.94549
33.0688	10.3481
35.4497	10.6832
37.8307	11.0183
39.6825	11.3537
42.0635	11.6888
44.4444	11.9566
46.8254	12.2917
49.2063	12.6268
51.3228	12.8947
53.4392	13.1627
55.8201	13.4304
58.2011	13.7655
60.582	14.0333
62.963	14.301
65.3439	14.6361
67.7249	14.9039
70.1058	15.1716
72.4868	15.3721
75.1323	15.6396
77.5132	15.9074
78.5714	16.0414
80.9524	16.3091
83.5979	16.5094
84.9206	16.7105
87.3016	16.9109
89.9471	17.1785
91.7989	17.3793
94.1799	17.647
96.8254	17.8473
99.2063	18.0477
