Adsorption isotherm of Hydrogen on MOF-177
DOI: 10.1016/j.ijhydene.2008.09.053
Adsorbate Hydrogen: InChIKey UFHFLCQGNIYNRP-UHFFFAOYSA-N
Temperature: 297 K
Tabular data in the source: 0
pressure (bar)	uptake (wt%)
10.8537	0.141467
11.8293	0.149034
12.6829	0.157871
13.6585	0.165439
16.7073	0.196998
17.561	0.204569
18.4146	0.21214
19.2683	0.219711
20	0.227286
20.9756	0.233587
22.0732	0.241151
23.0488	0.248719
32.1951	0.306689
33.2927	0.311722
34.1463	0.316761
35.2439	0.321793
35.9756	0.326836
37.0732	0.331869
38.0488	0.336904
39.1463	0.341937
