Adsorption isotherm of Krypton on Zeolite NaX
DOI: 10.1134/s2070205109020014
Adsorbate Krypton: InChIKey DNNSSWSSYDEUBZ-UHFFFAOYSA-N
Temperature: 600 K
Tabular data in the source: 0
pressure (bar)	uptake (mmol/g)
10100000	0.110135
59800000	0.293193
216000000	0.510575
707000000	0.842368
