Adsorption isotherm of Krypton on Zeolite 13X
DOI: 10.1134/s2070205109020014
Adsorbate Krypton: InChIKey DNNSSWSSYDEUBZ-UHFFFAOYSA-N
Temperature: 450 K
Tabular data in the source: 0
pressure (bar)	uptake (mmol/g)
2300000	0.133017
8720000	0.350399
46700000	0.693633
153000000	1.04831
476000000	1.41443
1100000000	1.74622
