Adsorption isotherm of Krypton on Zeolite 13X
DOI: 10.1134/s2070205109020014
Adsorbate Krypton: InChIKey DNNSSWSSYDEUBZ-UHFFFAOYSA-N
Temperature: 140 K
Tabular data in the source: 0
pressure (bar)	uptake (mmol/g)
9.51e-07	0.00716454
2.13698e-05	0.121576
0.000161934	0.270311
0.000480049	0.46481
0.00122709	0.647869
0.0028416	0.979662
0.0113298	1.58604
0.0237687	2.13522
0.0262367	2.55854
0.0389517	3.30221
0.121318	4.36624
0.965865	5.41883
8.08	6.12818
86.5	6.67735
487	7.07779
2370	7.40958
