Adsorption isotherm of Krypton on Zeolite 13X
DOI: 10.1134/s2070205109020014
Adsorbate Krypton: InChIKey DNNSSWSSYDEUBZ-UHFFFAOYSA-N
Temperature: 200 K
Tabular data in the source: 0
pressure (bar)	uptake (mmol/g)
0.00514031	0.0529291
0.0249722	0.0529291
0.121318	0.133017
0.792698	0.270311
4.25	0.487693
17.8	0.785162
41.2	1.25425
67.6	1.71189
100	2.20386
283	2.91322
565	3.67977
1760	4.44633
10900	5.28153
37600	5.70485
158000	6.01377
384000	6.31123
1770000	6.64303
5010000	6.82609
