Adsorption isotherm of Krypton on Zeolite 13X
DOI: 10.1134/s2070205109020014
Adsorbate Krypton: InChIKey DNNSSWSSYDEUBZ-UHFFFAOYSA-N
Temperature: 303 K
Tabular data in the source: 0
pressure (bar)	uptake (mmol/g)
493	0.0300468
4780	0.133017
32800	0.304634
176000	0.533457
737000	0.853809
2940000	1.3229
8720000	1.7691
24600000	2.38692
66100000	3.15348
132000000	3.75986
476000000	4.36624
1900000000	4.801
4860000000	5.20144
