Adsorption isotherm of Krypton on Zeolite 13X
DOI: 10.1134/s2070205109020014
Adsorbate Krypton: InChIKey DNNSSWSSYDEUBZ-UHFFFAOYSA-N
Temperature: 370 K
Tabular data in the source: 0
pressure (bar)	uptake (mmol/g)
42000	0.0529291
369000	0.144458
1980000	0.384722
17400000	0.76228
57000000	1.28857
186000000	1.84919
553000000	2.65007
1410000000	3.29077
3270000000	3.81707
