Adsorption isotherm of Krypton on Zeolite 13X
DOI: 10.1134/s2070205109020014
Adsorbate Krypton: InChIKey DNNSSWSSYDEUBZ-UHFFFAOYSA-N
Temperature: 170 K
Tabular data in the source: 0
pressure (bar)	uptake (mmol/g)
0.000645653	0.0186057
0.00691356	0.155899
0.0389517	0.281752
0.121318	0.430487
0.295165	0.682192
0.533938	0.86525
1.75	1.64325
2.73	2.11233
3.85	2.6043
6.31	3.31366
18.7	4.20606
116	4.9955
487	5.579
1760	5.97944
5760	6.24259
14000	6.43709
106000	6.90617
981000	7.36382
