Adsorption isotherm of Krypton on Zeolite 13X
DOI: 10.1134/s2070205109020014
Adsorbate Krypton: InChIKey DNNSSWSSYDEUBZ-UHFFFAOYSA-N
Temperature: 220 K
Tabular data in the source: 0
pressure (bar)	uptake (mmol/g)
7.04616	0.00716454
48.3711	0.0872525
235	0.167341
808	0.338958
2920	0.624986
11100	1.00254
32800	1.56316
125000	2.27251
261000	3.07339
668000	3.66833
2300000	4.43489
6810000	5.00694
25800000	5.47603
139000000	5.89935
277000000	6.09385
862000000	6.28835
