Adsorption isotherm of Krypton on Zeolite 13X
DOI: 10.1134/s2070205109020014
Adsorbate Krypton: InChIKey DNNSSWSSYDEUBZ-UHFFFAOYSA-N
Temperature: 320 K
Tabular data in the source: 0
pressure (bar)	uptake (mmol/g)
8650	0.00716454
68900	0.178782
473000	0.441928
2410000	0.796604
7900000	1.19704
38400000	1.79198
66100000	2.39836
126000000	3.06195
186000000	3.29077
781000000	3.9658
2100000000	4.45777
4860000000	4.84677
