Adsorption isotherm of Krypton on Zeolite 13X
DOI: 10.1134/s2070205109020014
Adsorbate Krypton: InChIKey DNNSSWSSYDEUBZ-UHFFFAOYSA-N
Temperature: 120 K
Tabular data in the source: 0
pressure (bar)	uptake (mmol/g)
1.33e-09	0.0300468
3e-08	0.0643703
4.11e-07	0.178782
4.71015e-05	0.888133
0.000132902	2.20386
0.000252585	3.39374
0.00111166	4.6065
0.00929854	5.7163
0.189232	6.63159
0.68352	6.83753
7.69	7.36382
47.8	7.59264
128	7.75282
312	7.89011
