Adsorption isotherm of Nitrogen on WBDT
DOI: 10.1039/d0sc03909h
Article source: Figure 1E
Adsorbate Nitrogen: InChIKey IJGRMHOSHXDMSA-UHFFFAOYSA-N
Kind: experiment
Temperature: 77 K
Tabular data in the source: 0
pressure (bar)	uptake ()
0	137.705
0.006178	236.066
0.012357	285.246
0.01699	311.475
0.020852	331.148
0.024713	344.262
0.030892	354.098
0.044793	368.852
0.054061	383.607
0.072596	396.721
0.09422	413.115
0.112755	426.23
0.132835	437.705
0.154459	445.902
0.163726	452.459
0.176083	460.656
0.185351	468.852
0.19539	475.41
0.20543	481.967
0.216242	490.164
0.234777	504.918
0.256402	526.229
0.287293	590.164
0.330542	640.984
0.3568	645.902
0.383058	649.18
0.407771	649.18
0.432485	660.656
0.457198	660.656
0.481912	665.574
0.50817	663.934
0.532883	660.656
0.559141	670.492
0.583854	667.213
0.611657	672.131
0.63637	670.492
0.662628	665.574
0.685797	665.574
0.710511	667.213
0.735224	670.492
0.761482	672.131
0.790829	673.771
0.813998	672.131
0.838712	677.049
0.86188	681.967
0.888138	681.967
0.912852	688.525
0.937565	695.082
0.963823	706.557
0.99626	767.213
0.963823	722.951
0.936021	711.475
0.909763	701.639
0.886594	698.361
0.860336	690.164
0.834078	686.885
0.809364	688.525
0.784651	683.607
0.759937	681.967
0.733679	680.328
0.708966	675.41
0.682708	672.131
0.657995	672.131
0.630192	672.131
0.608568	670.492
0.580765	668.852
0.556052	673.771
0.531338	659.016
0.506625	663.934
0.481912	667.213
0.455654	659.016
0.427851	657.377
0.403138	647.541
0.378424	645.082
0.353711	644.262
0.328997	636.066
0.305829	629.508
0.285749	588.525
0.271848	557.377
0.251768	524.59
0.233233	504.918
0.222421	491.803
0.211609	488.525
0.202341	480.328
0.191529	473.77
0.182261	467.213
0.171449	459.016
0.159093	450.82
0.149825	445.902
0.126656	432.787
0.100398	416.393
0.080319	404.918
0.058694	388.525
0.049427	381.967
0.03707	368.852
0.02008	334.426
0.009268	280.328
0.009268	259.016
0.004634	227.869
0	113.115
