Adsorption isotherm of Nitrogen on WTA
DOI: 10.1039/d0sc03909h
Article source: Figure 1D
Adsorbate Nitrogen: InChIKey IJGRMHOSHXDMSA-UHFFFAOYSA-N
Kind: experiment
Temperature: 77 K
Tabular data in the source: 0
pressure (bar)	uptake (cm3(STP)/g)
0	115.489
0.005549	209.737
0.007097	246.864
0.013291	258.288
0.017935	271.14
0.02258	279.708
0.028774	286.848
0.033418	293.988
0.038063	298.272
0.044257	302.556
0.05045	308.268
0.072126	321.12
0.092254	331.116
0.110833	343.968
0.130961	352.536
0.151089	361.104
0.155734	365.388
0.160379	369.672
0.166572	372.528
0.171217	373.956
0.17741	378.24
0.182055	385.379
0.185152	389.663
0.189797	398.231
0.19599	418.223
0.200635	421.079
0.20915	425.363
0.213021	426.791
0.234697	429.647
0.253277	431.075
0.273405	433.931
0.290436	439.643
0.304371	441.785
0.327595	445.355
0.353916	446.783
0.381786	451.067
0.40501	455.351
0.431331	458.207
0.454556	461.063
0.479328	468.203
0.507198	471.059
0.531971	473.915
0.556743	476.771
0.583064	481.055
0.607837	483.911
0.634158	486.767
0.657383	489.623
0.6868	492.479
0.710025	495.335
0.734798	498.191
0.75957	501.047
0.784343	511.043
0.810664	516.755
0.835437	521.039
0.861758	523.895
0.886531	530.321
0.9144	535.319
0.939173	543.886
0.963946	555.31
0.993363	601.006
0.959301	576.73
0.936076	568.876
0.909755	561.022
0.883434	556.738
0.86021	553.882
0.833889	551.026
0.806019	553.882
0.782795	551.026
0.758022	548.17
0.731701	545.315
0.706928	543.886
0.682155	541.031
0.657383	539.603
0.631062	536.747
0.606289	531.035
0.578419	529.607
0.555195	528.179
0.525777	526.751
0.504101	527.465
0.479328	513.899
0.45533	508.187
0.428235	505.331
0.403462	502.475
0.377141	498.191
0.352368	496.763
0.327595	491.051
0.301274	488.195
0.284243	486.767
0.269534	485.339
0.25018	482.483
0.230827	478.199
0.217666	476.771
0.209924	472.487
0.197538	471.059
0.191345	456.779
0.182055	431.075
0.172765	425.363
0.160379	416.795
0.147993	411.083
0.124768	399.659
0.099995	383.951
0.079867	372.528
0.05974	359.676
0.048901	348.252
0.039612	339.684
0.017935	308.268
0.008646	273.996
0.005549	259.716
0.002453	235.44
-0.000644	172.609
