Adsorption isotherm of Nitrogen on MOF-508b
DOI: 10.1002/anie.200502844
Adsorbate Nitrogen: InChIKey IJGRMHOSHXDMSA-UHFFFAOYSA-N
Temperature: 77 K
Tabular data in the source: 0
pressure (bar)	uptake (cm3(STP)/g)
0.0115928	136.054
0.0270326	170.138
0.0594561	178.003
0.115039	182.082
0.172166	185.577
0.241645	198.395
0.326564	209.465
0.394499	212.087
0.656975	212.961
0.988931	212.67
