Adsorption isotherm of Hydrogen on MOF-508b
DOI: 10.1002/anie.200502844
Adsorbate Hydrogen: InChIKey UFHFLCQGNIYNRP-UHFFFAOYSA-N
Temperature: 77 K
Tabular data in the source: 0
pressure (bar)	uptake (cm3(STP)/g)
0.00387292	1.46534
0.0362965	34.0928
0.0826158	48.3673
0.130479	57.6894
0.272525	71.6726
0.409939	76.0424
0.539633	79.8295
0.681679	83.9079
1.009	89.1516
