Adsorption isotherm of Carbon Dioxide on MOF-508b
DOI: 10.1002/anie.200502844
Adsorbate Carbon Dioxide: InChIKey CURLTUGMZLYLDI-UHFFFAOYSA-N
Temperature: 195 K
Tabular data in the source: 0
pressure (bar)	uptake (cm3(STP)/g)
0.0100488	16.3225
0.0362965	106.922
0.0733519	113.04
0.0949676	142.754
0.122759	153.241
0.19687	157.028
0.263261	160.233
0.399131	163.437
0.663151	166.642
0.993563	169.264
