Adsorption isotherm of Nitrogen on TpBD-(NO2)2 Nanosheet
DOI: 10.1021/ja408121p
Article source: Figure S21
Adsorbate Nitrogen: InChIKey IJGRMHOSHXDMSA-UHFFFAOYSA-N
Kind: experiment
Temperature: 77 K
Tabular data in the source: 0
pressure (bar)	uptake (cm3(STP)/g)
0.014042	1.78571
0.023443	6.86813
0.039372	9.75275
0.053447	10.5769
0.08971	11.8132
0.069675	9.75275
0.101998	9.75275
0.130214	10.5769
0.150383	10.989
0.168565	10.989
0.192774	11.4011
0.204795	12.6374
0.235065	13.0495
0.241126	13.0495
0.261328	13.0495
0.291564	13.8736
0.309746	13.8736
0.331968	13.8736
0.346076	14.2857
0.366278	14.2857
0.384393	15.1099
0.416583	16.7582
0.440859	16.3462
0.469075	17.1703
0.491264	17.5824
0.501365	17.5824
0.529582	18.4066
0.537629	18.8187
0.54773	18.8187
0.575946	19.6429
0.600189	19.6429
0.622278	21.2912
0.642446	21.7033
0.670729	21.7033
0.698979	22.1154
0.717094	22.9396
0.74127	23.7637
0.753324	24.5879
0.761339	25.4121
0.779454	26.2363
0.781441	26.6484
0.80545	29.533
0.853602	33.6538
0.861583	34.8901
0.877545	37.3626
0.893473	40.2473
0.901354	42.7198
0.915296	45.1923
0.940759	55.0824
0.948274	62.0879
0.957809	69.0934
0.966844	82.2802
0.969852	95.0549
0.972661	110.302
0.109912	11.8132
0.127928	13.8736
0.172405	13.4615
0.214796	13.8736
0.257021	16.3462
0.289344	16.3462
0.329615	17.9945
0.376079	17.9945
0.402342	17.9945
0.442613	19.6429
0.485037	19.6429
0.523321	20.8791
0.561705	20.8791
0.595882	22.9396
0.632212	23.3516
0.672516	24.5879
0.716794	26.6484
0.761006	29.533
0.781174	29.9451
0.815351	32.0055
0.837374	34.478
0.861316	38.1868
0.883039	44.3681
0.894927	47.2527
0.926052	62.0879
0.95469	82.6923
0.96862	110.302
