Adsorption isotherm of Nitrogen on TpPA-1
DOI: 10.1021/ja408121p
Article source: Figure 4a
Adsorbate Nitrogen: InChIKey IJGRMHOSHXDMSA-UHFFFAOYSA-N
Kind: experiment
Temperature: 77 K
Tabular data in the source: 0
pressure (bar)	uptake (cm3(STP)/g)
0.00183	75.7092
0.001901	83.6879
0.003071	90.7801
0.001995	94.3262
0.004272	101.418
0.003236	109.397
0.004375	112.943
0.006621	116.489
0.008867	120.035
0.011121	124.468
0.014498	130.674
0.02459	144.858
0.053445	151.95
0.075624	155.496
0.09558	158.156
0.124411	162.589
0.148797	165.248
0.17539	167.021
0.199776	169.681
0.230814	173.227
0.248532	173.227
0.279577	177.66
0.301733	178.546
0.323888	179.433
0.352696	181.206
0.385941	183.865
0.404778	185.195
0.423623	187.411
0.452422	188.298
0.479015	190.071
0.498964	191.844
0.527771	193.617
0.554372	196.277
0.578734	196.277
0.605343	199.823
0.631935	201.596
0.656321	204.255
0.682922	206.915
0.707308	209.574
0.733916	213.121
0.756079	214.894
0.78491	219.326
0.807082	221.986
0.829268	226.418
0.855893	231.738
0.884779	242.376
0.911426	250.355
0.951457	268.972
1.00263	295.567
0.011249	79.6647
0.009042	98.3675
0.036751	152.795
0.06496	157.627
0.089124	163.28
0.109284	165.686
0.147585	170.503
0.175803	174.523
0.220184	176.89
0.242355	180.107
0.270605	180.875
0.2928	181.652
0.319015	184.049
0.359335	188.862
0.383548	189.636
0.409755	192.846
0.435963	196.056
0.464188	199.263
0.480336	199.237
0.500512	200.018
0.528746	202.412
0.561017	204.799
0.58825	206.381
0.611445	207.97
0.631614	209.564
0.657829	211.96
0.690091	215.161
0.71227	217.564
0.73645	221.59
0.752565	224.817
0.778789	226.401
0.811035	231.227
0.839244	236.06
0.863351	247.403
0.895572	254.668
0.935785	270.051
0.998112	294.341
