Adsorption isotherm of Carbon Dioxide on TpBD-(NO2)2
DOI: 10.1021/ja408121p
Article source: Figure 4d
Adsorbate Carbon Dioxide: InChIKey CURLTUGMZLYLDI-UHFFFAOYSA-N
Kind: experiment
Temperature: 273 K
Tabular data in the source: 0
pressure (bar)	uptake (cm3(STP)/g)
0.002087	0.505804
0.0159	2.90319
0.018076	6.53192
0.041501	8.44113
0.051306	9.93056
0.066922	11.2034
0.078628	12.0512
0.090319	12.6855
0.09423	13.1105
0.105949	14.1718
0.113744	14.5947
0.123535	15.8706
0.13721	17.1445
0.145018	17.7809
0.156737	18.8422
0.164545	19.4786
0.176251	20.3265
0.18987	20.7463
0.217109	21.5858
0.226845	22.0077
0.236595	22.643
0.252184	23.4888
0.265817	24.1221
0.27945	24.7554
0.293056	24.9617
0.300864	25.5981
0.32035	26.6553
0.328144	27.0782
0.345661	27.7094
0.349572	28.1343
0.363191	28.5541
0.372913	28.7624
0.380708	29.1853
0.407974	30.4519
0.41771	30.8738
0.435227	31.505
0.446904	31.9258
0.452771	32.5632
0.472271	33.834
0.480051	34.0433
0.48589	34.2537
0.501451	34.6725
0.518954	35.0902
0.522865	35.5151
0.536484	35.9349
0.561754	36.3485
0.565651	36.5599
0.573459	37.1963
0.592931	38.04
0.59877	38.2504
0.6163	39.0951
0.626036	39.517
0.649392	40.3586
0.655231	40.569
0.666922	41.2034
0.676645	41.4117
0.694161	42.0429
0.7	42.2533
0.713619	42.6731
0.719458	42.8835
0.72918	43.0918
0.762217	43.5012
0.773894	43.9221
0.787541	44.7689
0.810911	45.824
0.816736	45.8209
0.843947	46.2334
0.843947	46.2334
0.863433	47.2906
0.869272	47.501
0.886774	47.9187
0.908161	48.3344
0.912044	48.3323
0.927619	48.9646
0.94318	49.3833
0.952902	49.5916
0.960697	50.0145
0.966535	50.2249
0.748625	43.5085
