Adsorption isotherm of Nitrogen on TpBD-Me2 Nanosheet
DOI: 10.1021/ja408121p
Article source: Figure S21
Adsorbate Nitrogen: InChIKey IJGRMHOSHXDMSA-UHFFFAOYSA-N
Kind: experiment
Temperature: 77 K
Tabular data in the source: 0
pressure (bar)	uptake (cm3(STP)/g)
0.011655	2.74725
0.022877	13.8736
0.034765	16.7582
0.046753	18.4066
0.056588	21.7033
0.07659	24.1758
0.102786	25
0.124842	27.0604
0.138917	27.8846
0.155012	28.7088
0.173127	29.533
0.193196	31.1813
0.199223	31.5934
0.223432	32.0055
0.245588	32.8297
0.255655	33.2418
0.273737	34.478
0.295926	34.8901
0.322156	35.3022
0.348285	36.9506
0.358319	37.7747
0.386436	39.8352
0.410645	40.2473
0.432767	41.4835
0.460983	42.3077
0.467044	42.3077
0.497214	43.956
0.513309	44.7802
0.527384	45.6044
0.543379	47.6648
0.555433	48.489
0.58153	50.5494
0.603652	51.7857
0.629615	55.4945
0.639649	56.3187
0.651671	57.5549
0.687801	60.4396
0.673859	57.967
0.707937	61.2637
0.729992	63.3242
0.748041	64.9725
0.766089	66.6209
0.768076	67.033
0.790065	69.9176
0.806094	71.5659
0.814042	73.2143
0.842025	76.9231
0.857853	81.044
0.871762	83.9286
0.887657	87.2253
0.893617	88.4615
0.907359	93.4066
0.915107	97.5275
0.918948	100
0.937951	114.835
0.947453	122.253
0.949206	125.549
0.962515	135.852
0.959563	147.39
0.062382	25
0.088478	27.0604
0.108414	30.3571
0.142557	32.8297
0.16468	34.0659
0.184782	35.3022
0.243168	37.7747
0.26529	39.011
0.291453	40.2473
0.309635	40.2473
0.333744	41.8956
0.357887	43.1319
0.392097	44.7802
0.408225	45.1923
0.432434	45.6044
0.466644	47.2527
0.496748	49.7253
0.524897	51.3736
0.569242	52.6099
0.585337	53.4341
0.605406	55.0824
0.639583	57.1429
0.665546	60.8516
0.691608	63.3242
0.715784	64.1484
0.739827	66.6209
0.765723	71.1538
0.795793	74.0385
0.817749	77.3352
0.839805	79.3956
0.855733	82.2802
0.877389	89.2857
0.893218	93.4066
0.9108	100.824
0.932323	109.478
0.941525	120.604
0.944733	130.907
0.946387	135.44
0.951582	146.154
