Adsorption isotherm of Nitrogen on TpBD
DOI: 10.1021/ja408121p
Article source: Figure 4b
Adsorbate Nitrogen: InChIKey IJGRMHOSHXDMSA-UHFFFAOYSA-N
Kind: experiment
Temperature: 77 K
Tabular data in the source: 0
pressure (bar)	uptake (cm3(STP)/g)
0.00582	86.1953
0.022752	99.6633
0.048149	116.498
0.07778	135.859
0.088362	144.276
0.103177	151.01
0.122225	159.428
0.13704	161.953
0.147622	161.953
0.160321	165.32
0.17302	166.162
0.194184	168.687
0.204766	168.687
0.221698	170.37
0.230164	171.212
0.242863	172.054
0.257678	173.737
0.270376	174.579
0.278842	174.579
0.289424	174.579
0.30424	177.104
0.325404	178.788
0.340219	179.63
0.348685	179.63
0.3635	180.471
0.378315	181.313
0.405829	181.313
0.414295	182.997
0.42911	184.68
0.443925	184.68
0.454507	184.68
0.471439	186.364
0.492604	187.205
0.511652	188.047
0.5307	191.414
0.547631	191.414
0.566679	191.414
0.58996	193.098
0.606892	194.781
0.621707	194.781
0.634406	196.465
0.653454	196.465
0.672502	198.148
0.687317	198.99
0.704248	200.673
0.725413	202.357
0.748694	203.199
0.767742	203.199
0.791023	207.407
0.780441	205.724
0.810071	208.249
0.835468	210.774
0.829119	209.933
0.848167	212.458
0.858749	213.3
0.875681	215.825
0.892612	217.508
0.909544	220.034
0.926476	223.401
0.941291	229.293
0.951873	235.185
0.966688	244.444
0.979387	254.545
0.987853	260.438
1.00478	293.266
0.996318	267.172
0.008087	42.2866
0.061648	142.342
0.083876	150.49
0.100018	157.007
0.116159	163.524
0.13647	168.419
0.162966	172.505
0.18341	174.148
0.22218	179.057
0.254897	181.522
0.269154	183.972
0.295884	182.368
0.338789	186.467
0.348978	188.102
0.377693	188.125
0.416596	189.782
0.441208	189.802
0.461519	194.696
0.486031	197.155
0.526952	199.626
0.553516	202.087
0.590334	204.555
0.619016	205.391
0.645646	206.226
0.688751	205.447
0.717299	209.535
0.74598	210.371
0.772577	212.019
0.805327	213.671
0.842079	217.765
0.896991	229.192
0.874696	222.67
0.927223	242.224
0.951435	252
0.971078	273.154
0.988671	294.306
