Adsorption isotherm of Carbon Dioxide on TpBD-(OMe2)
DOI: 10.1021/ja408121p
Article source: Figure 4d
Adsorbate Carbon Dioxide: InChIKey CURLTUGMZLYLDI-UHFFFAOYSA-N
Kind: experiment
Temperature: 273 K
Tabular data in the source: 0
pressure (bar)	uptake (cm3(STP)/g)
0.002114	0.078773
0.021614	1.19196
0.031378	2.04084
0.045025	2.88765
0.058672	3.73445
0.064525	4.15837
0.089877	5.85303
0.107394	6.48424
0.119057	6.69154
0.140471	7.5342
0.161885	8.37687
0.183285	9.00601
0.196891	9.21227
0.208568	9.63309
0.231924	10.4747
0.24166	10.8966
0.263032	11.0987
0.274724	11.733
0.294182	12.3632
0.309729	12.5684
0.315582	12.9923
0.340865	13.6194
0.356399	13.6111
0.371946	13.8163
0.387535	14.6621
0.40114	14.8684
0.418643	15.2861
0.430307	15.4934
0.447782	15.484
0.463343	15.9028
0.480832	16.107
0.50219	16.0956
0.506074	16.0935
0.531385	17.1476
0.541121	17.5694
0.552785	17.7767
0.572201	17.7664
0.576099	17.9778
0.591646	18.183
0.609121	18.1737
0.620785	18.381
0.640243	19.0112
0.663571	19.4258
0.667454	19.4237
0.681088	20.057
0.690796	20.0518
0.702446	20.0456
0.716079	20.6789
0.725815	21.1007
0.737479	21.308
0.754968	21.5122
0.778282	21.7133
0.799655	21.9154
0.807435	22.1248
0.826866	22.3279
0.84631	22.7446
0.857988	23.1654
0.881357	24.2206
0.89886	24.6383
0.910524	24.8456
0.931896	25.0477
0.939677	25.257
0.951354	25.6779
0.970799	26.0945
0.980535	26.5164
