Adsorption isotherm of Nitrogen on TpPa-2 Nanosheet
DOI: 10.1021/ja408121p
Article source: Figure S20
Adsorbate Nitrogen: InChIKey IJGRMHOSHXDMSA-UHFFFAOYSA-N
Kind: experiment
Temperature: 77 K
Tabular data in the source: 0
pressure (bar)	uptake (cm3(STP)/g)
0.030618	1.66496
0.05485	1.62269
0.085622	2.73181
0.101008	3.28637
0.134051	3.22874
0.149419	4.07403
0.167008	4.62474
0.202254	4.56327
0.239703	4.49795
0.261629	6.20389
0.274829	6.47157
0.305669	6.41778
0.323275	6.67777
0.34749	6.92623
0.362893	7.19006
0.378296	7.45389
0.406916	7.69467
0.426708	8.24155
0.439925	8.21849
0.461971	7.88934
0.492828	7.54483
0.517059	7.50256
0.536834	8.34016
0.55666	8.30558
0.580874	8.55405
0.59182	9.69775
0.609426	9.95774
0.640198	11.0669
0.668801	11.5984
0.679816	11.5792
0.70625	11.533
0.72821	12.6575
0.748036	12.623
0.772165	14.3251
0.79416	14.8681
0.813952	15.415
0.838132	16.2449
0.855635	18.2492
0.875376	19.6683
0.906045	22.5218
0.923514	25.1076
0.938764	27.988
0.964669	36.9544
0.981421	51.7508
0.975393	41.8776
0.991496	67.7216
0.026144	2.83555
0.050342	3.37474
0.078945	3.90625
0.100905	5.03074
0.127339	4.98463
0.151554	5.23309
0.173531	6.06685
0.206557	6.29995
0.239583	6.53304
0.273591	8.79931
0.30333	8.74744
0.336373	8.68981
0.36057	9.229
0.373805	8.91521
0.404577	10.0243
0.428825	9.69134
0.450837	9.94365
0.48166	10.1806
0.5014	11.5996
0.53002	11.8404
0.578432	12.6281
0.602647	12.8765
0.615796	14.0164
0.646602	14.5441
0.67307	13.9165
0.697182	15.9093
0.7236	16.1539
0.756609	16.6778
0.780823	16.9262
0.802783	18.0507
0.826964	18.8806
0.84889	20.5866
0.868613	22.2964
0.892691	24.8706
0.932104	28.8717
0.947131	35.5315
0.968699	43.3427
0.970355	52.6422
0.989259	68.3069
