Adsorption isotherm of Nitrogen on TpBD-Me2
DOI: 10.1021/ja408121p
Article source: Figure 4b
Adsorbate Nitrogen: InChIKey IJGRMHOSHXDMSA-UHFFFAOYSA-N
Kind: experiment
Temperature: 77 K
Tabular data in the source: 0
pressure (bar)	uptake (cm3(STP)/g)
0.014286	85.3535
0.031218	105.556
0.058731	119.865
0.07143	124.916
0.088362	127.441
0.111643	133.333
0.130691	135.017
0.156088	138.384
0.185718	143.434
0.211116	145.96
0.23228	146.801
0.244979	148.485
0.272493	150.168
0.29789	151.01
0.312705	152.694
0.325404	153.535
0.344452	155.219
0.3635	155.219
0.382548	156.902
0.401596	159.428
0.420644	159.428
0.433343	161.111
0.452391	161.953
0.46509	163.636
0.486254	164.478
0.498953	165.32
0.511652	166.162
0.539165	167.845
0.558213	169.529
0.579378	169.529
0.598426	172.054
0.611125	172.896
0.621707	172.896
0.642871	175.421
0.661919	176.263
0.676735	176.263
0.689433	177.104
0.708481	179.63
0.729646	182.155
0.742345	182.997
0.75716	184.68
0.769858	184.68
0.778324	187.205
0.793139	189.731
0.810071	191.414
0.824886	193.098
0.841818	194.781
0.8524	197.306
0.877797	200.673
0.901078	207.407
0.91801	212.458
0.939174	220.034
0.970921	241.919
0.985736	275.589
1.00055	295.791
0.002668	30.1001
0.021077	81.3343
0.028615	97.6006
0.050176	122.008
0.070252	132.593
0.10462	144.816
0.133168	148.904
0.172204	147.309
0.196717	149.768
0.225365	151.417
0.256064	153.068
0.276374	157.962
0.309058	161.24
0.33979	162.078
0.382662	166.99
0.364402	162.098
0.411476	164.574
0.44416	167.853
0.468672	170.311
0.493218	171.957
0.517731	174.416
0.544328	176.063
0.576978	180.154
0.593353	180.981
0.630171	183.449
0.664872	187.542
0.687467	186.747
0.703909	185.947
0.734475	190.85
0.77106	199.009
0.754985	190.866
0.793721	196.588
0.822303	199.863
0.85075	206.39
0.889287	216.99
0.913466	227.579
0.939729	237.356
0.955037	264.198
0.95537	256.068
0.979083	278.038
0.990622	296.746
