Adsorption isotherm of Nitrogen on TpPa-2
DOI: 10.1021/ja408121p
Article source: Figure 4a
Adsorbate Nitrogen: InChIKey IJGRMHOSHXDMSA-UHFFFAOYSA-N
Kind: experiment
Temperature: 77 K
Tabular data in the source: 0
pressure (bar)	uptake (cm3(STP)/g)
0.003573	22.5177
0.002592	36.7021
0.000463	46.4539
0.002733	52.6596
0.003888	57.9787
0.003919	61.5248
0.008388	65.9574
0.01065	71.2766
0.026224	79.2553
0.050617	82.8014
0.081671	88.1206
0.100512	89.8936
0.126013	93.4397
0.150391	95.2128
0.172547	96.0993
0.201362	98.7589
0.227963	101.418
0.250118	102.305
0.276711	104.078
0.301081	104.965
0.321029	106.738
0.35206	109.397
0.378668	112.943
0.405253	113.83
0.422979	114.716
0.447372	118.262
0.482809	118.262
0.50055	120.922
0.527151	123.582
0.553736	124.468
0.580328	126.241
0.604699	127.128
0.6291	131.56
0.655701	134.22
0.6845	135.106
0.711093	136.879
0.731057	140.426
0.757674	144.858
0.775407	146.631
0.810859	148.404
0.833054	153.723
0.855241	158.156
0.888533	166.135
0.904114	175
0.928555	183.865
0.984568	256.56
1.007	288.475
0.01399	8.11564
0.013579	48.7667
0.039458	84.4975
0.05152	89.3562
0.085768	95.8053
0.114018	96.573
0.138191	101.412
0.154314	103.825
0.188603	106.209
0.218863	107.787
0.237005	110.197
0.261218	110.971
0.283397	113.374
0.307602	114.962
0.33787	115.726
0.366112	117.307
0.388283	120.523
0.41449	123.733
0.440713	125.317
0.454834	126.107
0.487097	129.308
0.509283	130.898
0.541571	131.659
0.571823	134.05
0.610141	137.24
0.636356	139.637
0.658535	142.041
0.682731	144.441
0.712984	146.831
0.735162	149.235
0.759351	152.448
0.781521	155.664
0.815786	160.487
0.833927	162.897
0.852044	167.746
0.872179	172.592
0.896343	178.244
0.928335	208.274
0.962403	232.61
0.974309	252.916
1.00225	284.579
