Adsorption isotherm of Carbon Dioxide on TpPA-1
DOI: 10.1021/ja408121p
Article source: Figure 4d
Adsorbate Carbon Dioxide: InChIKey CURLTUGMZLYLDI-UHFFFAOYSA-N
Kind: experiment
Temperature: 273 K
Tabular data in the source: 0
pressure (bar)	uptake (cm3(STP)/g)
0.000173	0.077736
0.071331	19.3149
0.081164	21.2313
0.098777	23.3572
0.116376	25.2695
0.130079	26.9704
0.141812	28.2452
0.149675	29.7357
0.163364	31.2231
0.175124	32.925
0.188813	34.4123
0.198577	35.2612
0.214179	36.3205
0.233706	38.0182
0.247381	39.2921
0.264912	40.1368
0.284411	41.4075
0.305894	43.3178
0.315658	44.1667
0.321524	44.8041
0.335171	45.6509
0.341024	46.0748
0.358568	47.1331
0.374157	47.9789
0.385849	48.6132
0.409232	49.8818
0.415084	50.3058
0.432615	51.1505
0.446276	52.2108
0.459936	53.2711
0.477494	54.5429
0.493111	55.8157
0.508713	56.875
0.514552	57.0854
0.528213	58.1457
0.553524	59.1998
0.569113	60.0456
0.572996	60.0435
0.594382	60.4592
0.608043	61.5195
0.617779	61.9413
0.629485	62.7892
0.643118	63.4225
0.658665	63.6277
0.668415	64.2631
0.69177	65.1047
0.697623	65.5286
0.715167	66.5869
0.72102	67.0108
0.734667	67.8576
0.744389	68.0659
0.756067	68.4867
0.769686	68.9065
0.78332	69.5398
0.789158	69.7502
0.795011	70.1741
0.820336	71.4417
0.833955	71.8615
0.847588	72.4948
0.855369	72.7042
0.872899	73.5489
0.888488	74.3947
0.904035	74.5999
0.91961	75.2322
0.931302	75.8665
0.946891	76.7123
0.946904	76.9258
0.985835	78.3997
0.964421	77.557
0.978013	77.5498
