Adsorption isotherm of Nitrogen on TpBD-(NO2)2
DOI: 10.1021/ja408121p
Article source: Figure 4b
Adsorbate Nitrogen: InChIKey IJGRMHOSHXDMSA-UHFFFAOYSA-N
Kind: experiment
Temperature: 77 K
Tabular data in the source: 0
pressure (bar)	uptake (cm3(STP)/g)
0.003704	0.3367
0.001587	14.6465
0.010053	42.4242
0.024868	49.1582
0.046033	55.8923
0.060848	62.6263
0.07143	67.6768
0.079896	70.202
0.092595	73.569
0.113759	76.936
0.143389	81.1448
0.158205	81.1448
0.170903	81.9865
0.187835	82.8283
0.206883	85.3535
0.221698	87.8788
0.244979	90.404
0.261911	92.0875
0.283075	92.9293
0.300007	93.771
0.325404	95.4545
0.350801	98.8215
0.371966	100.505
0.386781	102.189
0.407946	104.714
0.414295	105.556
0.439692	108.081
0.45874	108.923
0.467206	110.606
0.490487	110.606
0.513768	113.131
0.5307	114.815
0.56033	117.34
0.575145	119.024
0.598426	122.391
0.642871	128.283
0.661919	128.283
0.678851	128.283
0.700016	133.333
0.733879	137.542
0.744461	139.226
0.761393	140.909
0.788906	144.276
0.801605	145.96
0.835468	149.327
0.82277	146.801
0.854516	152.694
0.862982	158.586
0.873564	161.953
0.886263	167.003
0.896845	171.212
0.909544	173.737
0.920126	177.104
0.930708	186.364
0.945524	197.306
0.970921	223.401
0.973037	230.976
0.973037	252.02
0.97727	255.387
0.992086	260.438
1.00267	286.532
0.621707	124.916
0.006553	4.88941
0.038019	68.3398
0.064316	77.304
0.094882	82.2066
0.113274	83.8473
0.147909	89.5662
0.18271	91.2201
0.207156	95.3048
0.233719	97.7651
0.258198	101.037
0.288831	104.313
0.325716	105.156
0.358366	109.247
0.382912	110.893
0.407391	114.165
0.442125	117.445
0.47686	120.724
0.499455	119.93
0.534089	125.648
0.554599	125.665
0.57501	128.12
0.607727	130.586
0.628104	133.854
0.652616	136.313
0.679146	139.586
0.69959	141.228
0.730189	145.318
0.746531	146.957
0.779181	151.048
0.803626	155.133
0.834159	160.849
0.850367	165.74
0.866509	172.257
0.884601	181.214
0.890554	186.097
0.918602	202.38
0.957755	247.94
0.984902	286.173
