Adsorption isotherm of Carbon Dioxide on TpPa-NO2
DOI: 10.1021/ja408121p
Article source: Figure 4d
Adsorbate Carbon Dioxide: InChIKey CURLTUGMZLYLDI-UHFFFAOYSA-N
Kind: experiment
Temperature: 273 K
Tabular data in the source: 0
pressure (bar)	uptake (cm3(STP)/g)
0.014151	5.89345
0.026106	10.5846
0.041846	13.779
0.053607	15.4809
0.065492	19.1045
0.085061	21.4428
0.106585	23.9936
0.100691	22.9291
0.118263	24.4144
0.129996	25.6893
0.137832	26.7527
0.153448	28.0255
0.16127	28.8754
0.173003	30.1503
0.184722	31.2117
0.198383	32.272
0.212044	33.3323
0.217897	33.7562
0.233499	34.8155
0.235455	35.028
0.245205	35.6633
0.260807	36.7226
0.268615	37.359
0.292026	39.0547
0.319279	40.1078
0.323176	40.3192
0.288129	38.8433
0.299834	39.6911
0.31154	40.539
0.340748	41.8045
0.354381	42.4378
0.370011	43.9241
0.371967	44.1366
0.379775	44.773
0.387555	44.9824
0.403158	46.0417
0.414849	46.676
0.420716	47.3134
0.444127	49.0091
0.449952	49.006
0.463599	49.8528
0.473335	50.2747
0.488923	51.1204
0.502557	51.7537
0.512293	52.1756
0.518145	52.5995
0.523984	52.8099
0.553192	54.0755
0.557076	54.0734
0.576562	55.1306
0.580459	55.342
0.541501	53.4411
0.596034	55.9743
0.605784	56.6097
0.615533	57.245
0.627225	57.8794
0.631122	58.0908
0.642814	58.7251
0.666169	59.5667
0.672008	59.7772
0.687583	60.4094
0.70123	61.2562
0.709024	61.6791
0.718747	61.8874
0.732394	62.7342
0.738232	62.9447
0.746013	63.154
0.753794	63.3634
0.767413	63.7832
0.78493	64.4144
0.790768	64.6248
0.794666	64.8362
0.816107	66.1059
0.833637	66.9507
0.845315	67.3715
0.858948	68.0048
0.870612	68.2121
0.882304	68.8464
0.899807	69.2641
0.911512	70.1119
0.919292	70.3213
0.929042	70.9567
0.948514	71.8004
0.954353	72.0108
0.962148	72.4337
0.97187	72.642
0.979664	73.0649
