Adsorption isotherm of Nitrogen on TpPa-NO2 Nanosheet
DOI: 10.1021/ja408121p
Article source: Figure S20
Adsorbate Nitrogen: InChIKey IJGRMHOSHXDMSA-UHFFFAOYSA-N
Kind: experiment
Temperature: 77 K
Tabular data in the source: 0
pressure (bar)	uptake (cm3(STP)/g)
0.021585	5.45978
0.039173	6.0105
0.063337	7.13115
0.098548	7.65113
0.127152	8.18263
0.149163	8.43494
0.162329	9.28407
0.184307	10.1178
0.21513	10.3548
0.245953	10.5917
0.267982	10.5533
0.316445	10.4688
0.347285	10.415
0.364891	10.6749
0.426503	11.7303
0.439669	12.5794
0.459392	14.2892
0.483538	15.7006
0.505516	16.5343
0.545082	17.9188
0.569228	19.3302
0.58458	20.4662
0.604355	21.3038
0.613115	22.1606
0.66151	23.239
0.681267	24.3673
0.69223	25.2203
0.714156	26.9262
0.729491	28.353
0.740454	29.2059
0.75362	30.0551
0.768938	31.7725
0.788695	32.9009
0.808402	34.9014
0.819331	36.3358
0.839037	38.3363
0.84778	39.4839
0.865232	42.3604
0.87179	43.2211
0.886936	47.8458
0.895458	52.7728
0.919382	57.9636
0.929867	66.957
0.93849	70.1396
0.94708	73.9037
0.966308	84.0446
0.981096	94.7746
0.052186	9.47618
0.085195	10
0.111629	9.95389
0.144638	10.4777
0.17985	10.9977
0.206284	10.9516
0.223873	11.5023
0.276639	13.1545
0.309699	12.8061
0.34708	13.9037
0.380072	14.7182
0.417384	16.9787
0.443784	17.5141
0.478911	19.4877
0.496516	19.7477
0.533897	20.8453
0.56904	22.5282
0.595441	23.0635
0.63055	25.3279
0.648139	25.8786
0.678928	26.697
0.70526	28.3952
0.711817	29.2559
0.740352	30.9503
0.768887	32.6447
0.790727	35.8043
0.80818	38.6808
0.838781	42.6972
0.847421	45.5891
0.873617	49.6132
0.893118	55.1025
0.923514	62.6076
0.936356	68.9805
0.951298	77.094
0.961971	82.8893
0.976656	95.3637
