Adsorption isotherm of Nitrogen on TpPa-F4
DOI: 10.1021/ja408121p
Article source: Figure 4a
Adsorbate Nitrogen: InChIKey IJGRMHOSHXDMSA-UHFFFAOYSA-N
Kind: experiment
Temperature: 77 K
Tabular data in the source: 0
pressure (bar)	uptake (cm3(STP)/g)
0.001154	0.531915
0.001437	31.383
0.010964	106.738
0.024354	118.262
0.04212	123.582
0.053225	127.128
0.068752	129.787
0.079841	131.56
0.09536	133.333
0.10645	135.106
0.121976	137.766
0.135273	138.652
0.159651	140.426
0.172947	141.312
0.184037	143.085
0.19511	143.085
0.210629	144.858
0.226141	145.745
0.23723	147.518
0.257163	147.518
0.270451	147.518
0.281533	148.404
0.2904	149.291
0.305903	149.291
0.323637	151.064
0.334718	151.95
0.348015	152.837
0.363518	152.837
0.383474	155.496
0.398978	155.496
0.410052	155.496
0.423356	157.27
0.443296	158.156
0.456593	159.043
0.472104	159.929
0.480963	159.929
0.498681	159.929
0.527496	162.589
0.51643	163.475
0.543007	163.475
0.558526	165.248
0.571815	165.248
0.591756	166.135
0.59397	166.135
0.613911	167.021
0.631645	168.794
0.647148	168.794
0.656007	168.794
0.680377	169.681
0.70254	171.454
0.724712	174.113
0.742445	175.887
0.757956	176.773
0.773468	177.66
0.793408	178.546
0.811134	179.433
0.831083	181.206
0.846609	183.865
0.879839	184.752
0.906447	188.298
0.91756	192.73
0.93531	196.277
0.950844	199.823
0.955305	203.369
0.966426	208.688
0.979809	219.326
1.00466	274.291
0.007992	2.43421
0.01577	31.69
0.035011	125.155
0.053095	133.256
0.073231	138.102
0.091348	142.951
0.141776	146.122
0.176074	147.693
0.200246	152.532
0.224467	152.493
0.260759	156.5
0.313198	160.481
0.339421	162.065
0.367655	164.459
0.389833	166.862
0.414055	166.823
0.450387	166.765
0.476611	168.349
0.533095	171.51
0.559326	172.281
0.595642	173.849
0.644053	177.023
0.672303	177.791
0.702547	180.994
0.728762	183.391
0.761066	182.527
0.793336	184.914
0.823572	188.93
0.851814	190.511
0.886128	190.456
0.914296	199.354
0.966481	228.538
0.992155	284.595
