Adsorption isotherm of Nitrogen on TpPa-F4 Nanosheet
DOI: 10.1021/ja408121p
Article source: Figure S20
Adsorbate Nitrogen: InChIKey IJGRMHOSHXDMSA-UHFFFAOYSA-N
Kind: experiment
Temperature: 77 K
Tabular data in the source: 0
pressure (bar)	uptake (cm3(STP)/g)
0.001964	2.00564
0.014925	6.34349
0.036749	9.7938
0.045526	10.3599
0.078484	11.7559
0.089464	12.3181
0.126844	13.4157
0.151042	13.9549
0.177442	14.4903
0.192828	15.0448
0.210383	16.177
0.232377	16.72
0.258794	16.9647
0.280789	17.5077
0.307189	18.043
0.320372	18.6014
0.329167	18.8768
0.359921	20.2766
0.388508	21.0989
0.395082	21.6688
0.434631	23.344
0.480806	24.717
0.496175	25.5622
0.518169	26.1053
0.540096	27.8112
0.553279	28.3696
0.573036	29.498
0.601571	31.1924
0.605977	31.1847
0.619177	31.4524
0.654337	32.8445
0.691684	34.5236
0.698207	35.9657
0.70917	36.8186
0.733316	38.23
0.744296	38.7923
0.76402	40.502
0.770594	41.072
0.801349	42.4718
0.821089	43.8909
0.825444	44.7554
0.832018	45.3253
0.849539	47.0389
0.875871	48.7372
0.882411	49.8886
0.899795	53.928
0.930191	61.4331
0.949676	67.2131
0.942794	71.8763
0.959904	80.5674
0.978911	94.4877
0.038781	12.6972
0.060656	15.2754
0.080447	15.8222
0.100239	16.3691
0.144279	16.583
0.205891	17.6383
0.175051	17.6921
0.230055	18.759
0.260895	18.7052
0.282821	20.4111
0.315796	21.5164
0.337773	22.3502
0.366428	22.0095
0.383965	23.4324
0.421363	24.2392
0.449898	25.9337
0.476264	27.0505
0.526793	29.2879
0.557616	29.5248
0.570799	30.0832
0.599266	32.9406
0.647661	34.019
0.665266	34.2789
0.689327	37.144
0.71127	38.5592
0.742008	40.2497
0.772712	42.5218
0.796824	44.5146
0.829679	47.655
0.849334	50.5277
0.875529	54.5517
0.893016	56.8468
0.914771	61.46
0.93651	66.364
0.949454	70.9926
0.955635	78.2492
0.978928	94.197
