Adsorption isotherm of Carbon Dioxide on TpBD-Me2
DOI: 10.1021/ja408121p
Article source: Figure 4d
Adsorbate Carbon Dioxide: InChIKey CURLTUGMZLYLDI-UHFFFAOYSA-N
Kind: experiment
Temperature: 273 K
Tabular data in the source: 0
pressure (bar)	uptake (cm3(STP)/g)
0.005735	0.355721
0.004042	0.293325
0.011864	0.556592
0.027453	1.40236
0.043042	2.24813
0.064497	3.73134
0.083997	5.00207
0.101541	6.06032
0.119085	7.11857
0.140513	8.17475
0.163882	9.22989
0.177501	9.64967
0.198874	9.85178
0.214449	10.484
0.230037	11.3298
0.243671	11.9631
0.261187	12.5943
0.28647	13.2214
0.296193	13.4297
0.30787	13.8505
0.327315	14.2672
0.358423	14.8912
0.36429	15.5286
0.348701	14.6828
0.368187	15.7401
0.385683	16.051
0.405176	17.215
0.416839	17.4223
0.422664	17.4192
0.436284	17.8389
0.440181	18.0504
0.455742	18.4691
0.469348	18.6754
0.482967	19.0951
0.50047	19.5129
0.517973	19.9306
0.525753	20.1399
0.547139	20.5556
0.564642	20.9733
0.5841	21.6034
0.605514	22.4461
0.619133	22.8659
0.632753	23.2857
0.652225	24.1294
0.661961	24.5512
0.671697	24.9731
0.685316	25.3928
0.704775	26.023
0.718408	26.6563
0.737839	26.8595
0.7534	27.2782
0.765077	27.699
0.796186	28.323
0.809778	28.3157
0.817558	28.5251
0.82925	29.1594
0.842869	29.5792
0.860372	29.9969
0.891508	31.0479
0.893449	31.0468
0.885697	31.2645
0.879844	30.8406
0.90123	31.2562
0.914836	31.4625
0.928441	31.6687
0.938177	32.0906
0.945985	32.727
0.953807	33.5769
0.959646	33.7873
0.971352	34.6352
0.979132	34.8445
0.986913	35.0539
0.992765	35.4778
