Adsorption isotherm of Carbon Dioxide on TpBD
DOI: 10.1021/ja408121p
Article source: Figure 4d
Adsorbate Carbon Dioxide: InChIKey CURLTUGMZLYLDI-UHFFFAOYSA-N
Kind: experiment
Temperature: 273 K
Tabular data in the source: 0
pressure (bar)	uptake (cm3(STP)/g)
0.00787	1.14946
0.043263	5.66439
0.06279	7.36215
0.090057	8.62873
0.101721	8.83603
0.128959	9.67558
0.138709	10.3109
0.164034	11.5786
0.169873	11.789
0.193256	13.0576
0.204947	13.692
0.214684	14.1138
0.232214	14.9585
0.238039	14.9554
0.251658	15.3752
0.267219	15.7939
0.275014	16.2168
0.284722	16.2117
0.294486	17.0605
0.304208	17.2689
0.315886	17.6897
0.329505	18.1095
0.341183	18.5303
0.358686	18.948
0.376202	19.5792
0.382041	19.7896
0.403441	20.4187
0.407338	20.6302
0.42093	20.6229
0.442344	21.4656
0.455977	22.0989
0.471538	22.5176
0.492952	23.3603
0.498791	23.5707
0.514338	23.7759
0.531855	24.4071
0.543519	24.6144
0.553268	25.2498
0.570813	26.308
0.57471	26.5195
0.598051	27.1476
0.601949	27.359
0.615568	27.7788
0.648618	28.4017
0.654485	29.0392
0.63891	28.4069
0.668076	29.0319
0.677812	29.4538
0.685607	29.8767
0.691432	29.8735
0.712818	30.2892
0.720612	30.7121
0.732304	31.3464
0.747865	31.7651
0.761498	32.3984
0.775104	32.6047
0.784826	32.813
0.804298	33.6567
0.815962	33.864
0.825698	34.2859
0.862631	34.9067
0.874309	35.3275
0.845142	34.7025
0.885987	35.7483
0.905404	35.738
0.907359	35.9505
0.930728	37.0056
0.950187	37.6358
0.969631	38.0524
