Adsorption isotherm of Nitrogen on TpBD Nanosheet
DOI: 10.1021/ja408121p
Article source: Figure S21
Adsorbate Nitrogen: InChIKey IJGRMHOSHXDMSA-UHFFFAOYSA-N
Kind: experiment
Temperature: 77 K
Tabular data in the source: 0
pressure (bar)	uptake (cm3(STP)/g)
0.021856	1.51099
0.033744	4.3956
0.049872	4.80769
0.06196	5.21978
0.086169	5.63187
0.104451	4.3956
0.144855	4.3956
0.146875	4.3956
0.193473	2.74725
0.175258	3.15934
0.201388	4.80769
0.235798	3.98352
0.272161	3.98352
0.286136	6.04396
0.322466	6.45604
0.330547	6.45604
0.364791	7.69231
0.391053	7.69231
0.417349	7.28022
0.435498	7.69231
0.449639	7.69231
0.465734	8.51648
0.479842	8.92857
0.506105	8.92857
0.534388	8.92857
0.552536	9.34066
0.560617	9.34066
0.570685	9.75275
0.594894	10.1648
0.623921	13.4615
0.6553	12.6374
0.677389	14.2857
0.695438	15.9341
0.715607	16.3462
0.721634	16.7582
0.759885	18.4066
0.782073	18.8187
0.806249	19.6429
0.832345	21.7033
0.854434	23.3516
0.874537	24.5879
0.896626	26.2363
0.924675	29.1209
0.93663	31.1813
0.946598	32.8297
0.958519	35.3022
0.966334	38.5989
0.978089	43.1319
0.983849	46.8407
0.061927	5.63187
0.094217	6.04396
0.122533	5.63187
0.148696	6.86813
0.162837	6.86813
0.189	8.1044
0.194961	9.34066
0.25348	10.1648
0.25348	10.1648
0.287823	10.1648
0.310079	9.75275
0.344356	10.5769
0.372572	11.4011
0.392707	12.2253
0.412876	12.6374
0.443179	12.6374
0.475502	12.6374
0.497724	12.6374
0.537895	15.522
0.568198	15.522
0.58628	16.7582
0.626651	17.1703
0.65086	17.5824
0.664935	18.4066
0.675036	18.4066
0.683084	18.8187
0.705239	19.6429
0.725375	20.467
0.741436	21.7033
0.753491	22.5275
0.856155	27.0604
0.795849	23.3516
0.920402	32.0055
0.93633	34.8901
0.95822	39.011
0.965934	43.544
0.975769	46.8407
