Adsorption isotherm of Carbon Dioxide on TpPa-2
DOI: 10.1021/ja408121p
Article source: Figure 4d
Adsorbate Carbon Dioxide: InChIKey CURLTUGMZLYLDI-UHFFFAOYSA-N
Kind: experiment
Temperature: 273 K
Tabular data in the source: 0
pressure (bar)	uptake (cm3(STP)/g)
0.017855	3.11567
0.035455	5.02799
0.049129	6.30182
0.056979	7.57877
0.068712	8.85365
0.078489	9.91605
0.094106	11.1888
0.101928	12.0388
0.117544	13.3116
0.133133	14.1573
0.140941	14.7937
0.150705	15.6426
0.174074	16.6978
0.183838	17.5466
0.197512	18.8205
0.207248	19.2423
0.222837	20.0881
0.23844	21.1474
0.254015	21.7796
0.259867	22.2036
0.289103	23.8961
0.296897	24.319
0.310517	24.7388
0.326078	25.1575
0.341667	26.0033
0.351389	26.2117
0.374772	27.4803
0.38258	28.1167
0.390361	28.3261
0.402052	28.9604
0.433202	30.2249
0.435158	30.4374
0.437113	30.6499
0.45076	31.4967
0.458541	31.7061
0.464393	32.13
0.487776	33.3986
0.497526	34.034
0.511173	34.8808
0.530659	35.938
0.536512	36.3619
0.542351	36.5723
0.546262	36.9973
0.556012	37.6327
0.565761	38.268
0.573556	38.6909
0.610614	41.2334
0.616452	41.4438
0.622319	42.0813
0.596911	39.5325
0.604706	39.9554
0.630169	43.3582
0.643829	44.4185
0.653524	44.1998
0.672982	44.83
0.678835	45.2539
0.69441	45.8862
0.702218	46.5226
0.715865	47.3694
0.729498	48.0027
0.739234	48.4245
0.747015	48.6339
0.75872	49.4818
0.776237	50.113
0.787928	50.7473
0.799634	51.5951
0.815236	52.6544
0.828883	53.5012
0.836692	54.1376
0.846441	54.773
0.86203	55.6188
0.873722	56.2531
0.885413	56.8874
0.891266	57.3114
0.910752	58.3686
0.916604	58.7925
0.928296	59.4268
0.94781	60.9111
0.95559	61.1204
0.969223	61.7537
0.969223	61.7537
0.986809	63.4525
