Adsorption isotherm of Nitrogen on TpBD-(OMe2)
DOI: 10.1021/ja408121p
Article source: Figure 4b
Adsorbate Nitrogen: InChIKey IJGRMHOSHXDMSA-UHFFFAOYSA-N
Kind: experiment
Temperature: 77 K
Tabular data in the source: 0
pressure (bar)	uptake (cm3(STP)/g)
0.00582	26.431
0.001587	34.0067
0.001587	40.7407
0.003704	47.4747
0.003704	50.8418
0.007937	60.101
0.010053	67.6768
0.020635	73.569
0.035451	81.9865
0.050266	87.037
0.073547	92.0875
0.096828	92.9293
0.126458	97.138
0.151855	99.6633
0.177253	99.6633
0.20265	104.714
0.221698	105.556
0.257678	105.556
0.280959	106.397
0.300007	106.397
0.321171	107.239
0.357151	108.081
0.386781	107.239
0.405829	108.923
0.431227	110.606
0.452391	109.764
0.480963	112.71
0.653454	124.916
0.683084	126.599
0.706365	128.283
0.742345	131.65
0.761393	135.859
0.778324	136.7
0.810071	139.226
0.839701	141.751
0.860866	145.118
0.88838	149.327
0.913777	153.535
0.937058	164.478
0.962455	182.155
0.989969	226.768
1.00267	273.906
0.010655	85.391
0.034801	96.7925
0.079691	102.52
0.11029	106.609
0.157297	110.712
0.18396	110.733
0.208606	109.94
0.247476	112.41
0.276124	114.059
0.308874	115.712
0.337422	119.8
0.364086	119.821
0.403189	116.6
0.427668	119.872
0.452281	119.892
0.47686	120.724
0.515496	128.886
0.566872	126.488
0.605609	132.21
0.640443	133.051
0.667107	133.072
0.703826	137.98
0.746898	138.014
0.79182	142.928
0.840645	152.724
0.8163	146.2
0.859005	155.177
0.899592	165.779
0.921753	175.553
0.963391	210.546
0.981634	265.845
0.997108	288.622
