Adsorption isotherm of Nitrogen on TpPa-NO2
DOI: 10.1021/ja408121p
Article source: Figure 4a
Adsorbate Nitrogen: InChIKey IJGRMHOSHXDMSA-UHFFFAOYSA-N
Kind: experiment
Temperature: 77 K
Tabular data in the source: 0
pressure (bar)	uptake (cm3(STP)/g)
0.010233	24.2908
0.030205	28.7234
0.045732	31.383
0.059013	30.4965
0.072302	30.4965
0.090051	34.0426
0.09891	34.0426
0.112199	34.0426
0.125487	34.0426
0.136577	35.8156
0.14765	35.8156
0.163154	35.8156
0.183094	36.7021
0.196391	37.5887
0.205257	38.4752
0.234065	40.2482
0.247353	40.2482
0.262857	40.2482
0.276153	41.1348
0.293879	42.0213
0.316027	42.0213
0.333752	42.9078
0.358115	42.9078
0.373626	43.7943
0.384707	44.6809
0.395789	45.5674
0.409078	45.5674
0.422366	45.5674
0.448959	47.3404
0.460033	47.3404
0.48884	49.1135
0.506558	49.1135
0.526491	49.1135
0.539795	50.8865
0.550869	50.8865
0.557513	50.8865
0.57081	51.773
0.581891	52.6596
0.595196	54.4326
0.630647	56.2057
0.643952	57.9787
0.659439	56.2057
0.674942	56.2057
0.70375	57.9787
0.721484	59.7518
0.741432	61.5248
0.768025	63.2979
0.785766	65.9574
0.805715	67.7305
0.823457	70.3901
0.845628	73.0496
0.854495	73.9362
0.867799	75.7092
0.881103	77.4823
0.903298	82.8014
0.909958	84.5745
0.936598	91.6667
0.954355	96.0993
0.996726	128.901
0.998988	134.22
0.050092	30.8219
0.074273	34.8482
0.09847	37.2484
0.130765	37.1965
0.156956	42.0326
0.187224	42.797
0.213456	43.5679
0.241723	42.7095
0.273952	49.1619
0.296164	48.3132
0.326449	47.4516
0.352672	49.0355
0.380914	50.6162
0.405136	50.5774
0.433394	50.532
0.465657	53.7323
0.493915	53.6869
0.518137	53.6481
0.548389	56.0385
0.566539	57.6354
0.600836	59.2064
0.62907	61.6001
0.655294	63.1841
0.687556	66.3843
0.709734	68.7878
0.744032	70.3587
0.776294	73.559
0.80251	75.9559
0.828725	78.3529
0.850904	80.7563
0.879105	86.4021
0.915371	92.848
0.937541	96.0645
0.945558	101.743
0.957611	107.414
0.975671	117.954
0.997718	133.366
