Adsorption isotherm of Carbon Dioxide on TpPa-F4
DOI: 10.1021/ja408121p
Article source: Figure 4d
Adsorbate Carbon Dioxide: InChIKey CURLTUGMZLYLDI-UHFFFAOYSA-N
Kind: experiment
Temperature: 273 K
Tabular data in the source: 0
pressure (bar)	uptake (cm3(STP)/g)
0.009826	0.936982
0.037161	1.39718
0.021573	0.55141
0.048894	2.67206
0.058658	3.52094
0.072305	4.36774
0.078158	4.79167
0.095688	5.6364
0.111263	6.26866
0.130749	7.32587
0.144396	8.17268
0.158015	8.59245
0.183299	9.21953
0.200788	9.42371
0.218277	9.6279
0.233838	10.0466
0.245488	10.0404
0.276624	11.0914
0.28636	11.5133
0.303876	12.1445
0.319438	12.5632
0.333071	13.1965
0.348632	13.6153
0.362265	14.2485
0.370059	14.6714
0.383665	14.8777
0.414787	15.7152
0.420626	15.9256
0.428407	16.135
0.451748	16.7631
0.463412	16.9704
0.477045	17.6036
0.49262	18.2359
0.500387	18.2318
0.514006	18.6515
0.53542	19.4942
0.543201	19.7036
0.549026	19.7005
0.560703	20.1213
0.572381	20.5421
0.578234	20.966
0.591853	21.3858
0.607442	22.2316
0.622934	21.5827
0.624903	22.0087
0.644362	22.6389
0.650214	23.0628
0.665789	23.6951
0.687161	23.8972
0.694942	24.1066
0.696897	24.319
0.718311	25.1617
0.739684	25.3638
0.743581	25.5752
0.759128	25.7805
0.768864	26.2023
0.798044	27.0408
0.803883	27.2512
0.819444	27.67
0.840831	28.0856
0.848611	28.295
0.866114	28.7127
0.871953	28.9231
0.893367	29.7658
0.901161	30.1886
0.910897	30.6105
0.918705	31.2469
0.943961	31.4469
0.961477	32.0782
0.973155	32.499
0.982877	32.7073
0.996483	32.9136
0.951755	31.8698
0.926444	30.8157
0.8875	29.1283
0.786381	26.8335
0.780528	26.4096
