Adsorption isotherm of Nitrogen on TpPa-1 Nanosheet
DOI: 10.1021/ja408121p
Article source: Figure S20
Adsorbate Nitrogen: InChIKey IJGRMHOSHXDMSA-UHFFFAOYSA-N
Kind: experiment
Temperature: 77 K
Tabular data in the source: 0
pressure (bar)	uptake (cm3(STP)/g)
0.013081	0.242059
0.019638	1.10272
0.037244	1.3627
0.054816	2.20415
0.072439	2.17341
0.09223	2.72029
0.123036	3.24795
0.156011	4.35323
0.180208	4.89242
0.211014	5.42008
0.235195	6.25
0.263832	6.20005
0.272609	6.76614
0.30123	7.00692
0.31665	6.98002
0.340864	7.22848
0.376025	8.62064
0.393613	9.17136
0.419997	9.99744
0.455208	10.5174
0.483777	11.6304
0.49474	12.4833
0.512329	13.0341
0.534341	13.2864
0.565113	14.3955
0.57611	14.667
0.611356	14.6055
0.626776	14.5786
0.661988	15.0986
0.681779	15.6455
0.699368	16.1962
0.70596	16.4754
0.723566	16.7354
0.749949	17.5615
0.774129	18.3914
0.80485	20.3727
0.83125	20.908
0.862039	21.7264
0.886219	22.5564
0.914669	25.7044
0.940813	30.6007
0.968921	39.5633
0.983897	47.0953
0.976742	56.4101
0.987107	67.4385
0.989054	71.7956
0.986356	80.2305
0.013012	1.40497
0.032804	1.95184
0.076878	1.58427
0.134068	2.93801
0.171533	2.58197
0.204457	4.55943
0.233026	5.67239
0.266001	6.77766
0.292418	7.02228
0.321038	7.26306
0.334238	7.53074
0.397917	10.908
0.419911	11.4511
0.437517	11.7111
0.461714	12.2503
0.494723	12.7741
0.507923	13.0418
0.527732	13.2979
0.556318	14.1201
0.578296	14.9539
0.606916	15.1947
0.628911	15.7377
0.655294	16.5638
0.677288	17.1068
0.721329	17.3207
0.752049	19.302
0.763064	19.2828
0.776281	19.2597
0.809255	20.365
0.822456	20.6327
0.873019	22.2887
0.8861	24.5914
0.905772	27.1734
0.918904	28.604
0.927596	30.6237
0.951503	36.1053
0.966667	40.4393
0.977305	46.8161
0.985656	54.6504
0.9868	72.6716
0.986407	79.3584
