Adsorption isotherm of Nitrogen on TpBD-(OMe)2 Nanosheet
DOI: 10.1021/ja408121p
Article source: Figure S21
Adsorbate Nitrogen: InChIKey IJGRMHOSHXDMSA-UHFFFAOYSA-N
Kind: experiment
Temperature: 77 K
Tabular data in the source: 0
pressure (bar)	uptake (cm3(STP)/g)
0.019969	-0.137363
0.02997	1.0989
0.042025	1.92308
0.066267	1.92308
0.088456	2.33517
0.106571	3.15934
0.118692	3.15934
0.138861	3.57143
0.150982	3.57143
0.165057	4.3956
0.183239	4.3956
0.207415	5.21978
0.223576	5.21978
0.231657	5.21978
0.249806	5.63187
0.267988	5.63187
0.284149	5.63187
0.304385	5.21978
0.32462	4.80769
0.346809	5.21978
0.391153	6.45604
0.407315	6.45604
0.429437	7.69231
0.439538	7.69231
0.45974	7.69231
0.471861	7.69231
0.500078	8.51648
0.504118	8.51648
0.514153	9.34066
0.526207	10.1648
0.55439	11.4011
0.570552	11.4011
0.600788	12.2253
0.616883	13.0495
0.620924	13.0495
0.633078	12.6374
0.639139	12.6374
0.651193	13.4615
0.6552	13.8736
0.667255	14.6978
0.695504	15.1099
0.701532	15.522
0.735809	16.3462
0.719747	15.1099
0.753957	16.7582
0.782207	17.1703
0.772139	16.7582
0.796182	19.2308
0.832345	21.7033
0.820324	20.467
0.850494	22.1154
0.868476	24.5879
0.880464	26.2363
0.892485	27.4725
0.898446	28.7088
0.910434	30.3571
0.920369	32.4176
0.936297	35.3022
0.942191	37.3626
0.957753	44.7802
0.968376	63.3242
0.977911	70.3297
0.978299	90.522
0.980142	117.72
0.056066	3.15934
0.082262	3.98352
0.112499	4.80769
0.142835	4.3956
0.169031	5.21978
0.203374	5.21978
0.229604	5.63187
0.249739	6.45604
0.274015	6.04396
0.300144	7.69231
0.342502	8.51648
0.372805	8.51648
0.380852	8.92857
0.409169	8.51648
0.433245	10.5769
0.455467	10.5769
0.495771	11.8132
0.523987	12.6374
0.566278	14.2857
0.590554	13.8736
0.614696	15.1099
0.636885	15.522
0.665068	16.7582
0.693251	17.9945
0.727528	18.8187
0.755644	20.8791
0.769686	22.1154
0.817904	25.4121
0.876091	30.3571
0.925796	40.2473
0.954701	57.5549
0.982229	116.896
