Adsorption isotherm of Hydrogen on C2H2MnO4
DOI: 10.1021/Jp050948l
Adsorbate Hydrogen: InChIKey UFHFLCQGNIYNRP-UHFFFAOYSA-N
Temperature: 78 K
Tabular data in the source: 0
pressure (bar)	uptake (cm3(STP)/g)
0.0149343	2.5906
0.0586318	30.12
0.102329	55.9015
0.202833	72.7251
0.301153	79.4982
0.403842	84.9604
0.502161	89.1116
0.602665	90.204
0.705355	91.7335
0.803674	94.5738
0.901993	95.8847
0.95006	98.2881
