Adsorption isotherm of Hydrogen on IRMOF-8
DOI: 10.1021/Jp050948l
Adsorbate Hydrogen: InChIKey UFHFLCQGNIYNRP-UHFFFAOYSA-N
Temperature: 77 K
Tabular data in the source: 0
pressure (bar)	uptake (mg/g)
0.0105646	0.212238
0.0171192	1.87274
0.0630016	4.05762
0.130733	5.67442
0.266195	8.16518
0.399472	9.91308
0.469388	10.7433
0.534934	11.3551
0.808044	13.7585
0.980649	14.8509
