Adsorption isotherm of Hydrogen on IRMOF-1
DOI: 10.1021/Jp050948l
Adsorbate Hydrogen: InChIKey UFHFLCQGNIYNRP-UHFFFAOYSA-N
Temperature: 77 K
Tabular data in the source: 0
pressure (bar)	uptake (mg/g)
0.021489	0.318357
0.0564469	0.842726
0.0804806	1.3671
0.104514	1.69483
0.327371	5.56205
0.554598	8.51163
0.781825	11.4612
