Adsorption isotherm of Hydrogen on C2H2MnO4
DOI: 10.1021/Jp050948l
Adsorbate Hydrogen: InChIKey UFHFLCQGNIYNRP-UHFFFAOYSA-N
Temperature: 78 K
Tabular data in the source: 0
pressure (bar)	uptake (cm3(STP)/g)
0.0105646	1.71665
0.0586318	23.5654
0.0979595	35.1452
0.189724	51.9688
0.371069	70.5402
0.548044	81.9015
0.641993	86.4898
0.729388	89.1116
0.825523	91.9519
0.998128	97.6326
