Adsorption isotherm of Hydrogen on IRMOF-1
DOI: 10.1021/Jp050948l
Adsorbate Hydrogen: InChIKey UFHFLCQGNIYNRP-UHFFFAOYSA-N
Temperature: 77 K
Tabular data in the source: 0
pressure (bar)	uptake (mg/g)
0.0127495	0.383903
0.0455226	1.56373
0.0848503	2.80911
0.0979595	3.26794
0.281489	9.29819
0.460649	14.4763
0.644178	19.3923
0.821153	23.9805
0.998128	28.1755
