Adsorption isotherm of Hydrogen on IRMOF-6
DOI: 10.1021/Jp050948l
Adsorbate Hydrogen: InChIKey UFHFLCQGNIYNRP-UHFFFAOYSA-N
Temperature: 298 K
Tabular data in the source: 0
pressure (bar)	uptake (mg/g)
10.2329	0.451954
27.7119	1.09868
44.7539	1.67548
62.0144	2.14742
78.401	2.53195
95.006	2.93397
