Adsorption isotherm of Argon on C2H2MnO4
DOI: 10.1021/Jp050948l
Adsorbate Argon: InChIKey XKRFYHLGVUSROY-UHFFFAOYSA-N
Temperature: 78 K
Tabular data in the source: 0
pressure (bar)	uptake (cm3(STP)/g)
0.0349068	0.68666
0.0812771	0.68666
0.124022	0.86145
0.213533	1.38582
