Adsorption isotherm of Hydrogen on IRMOF-8
DOI: 10.1021/Jp050948l
Adsorbate Hydrogen: InChIKey UFHFLCQGNIYNRP-UHFFFAOYSA-N
Temperature: 298 K
Tabular data in the source: 0
pressure (bar)	uptake (mg/g)
1.93041	0.187264
6.73713	1.03936
10.4514	1.95701
27.9304	5.75869
45.1909	9.036
61.5775	12.1822
78.6195	15.0663
94.5691	17.8847
