Adsorption isotherm of Hydrogen on Cu-MMOM
DOI: 10.1021/Jp050948l
Adsorbate Hydrogen: InChIKey UFHFLCQGNIYNRP-UHFFFAOYSA-N
Temperature: 298 K
Tabular data in the source: 0
pressure (bar)	uptake (mg/g)
1.40218	0.0842701
6.86436	2.05066
14.1837	3.25234
20.9568	4.47587
27.8392	5.74309
34.3938	7.09772
41.8223	8.34309
48.4862	9.65402
