Adsorption isotherm of Argon on CuBTC
DOI: 10.1021/Jp050948l
Adsorbate Argon: InChIKey XKRFYHLGVUSROY-UHFFFAOYSA-N
Temperature: 273 K
Tabular data in the source: 0
pressure (bar)	uptake (cm3(STP)/g)
5.79e-07	10.6119
3.54e-06	21.5363
1.28e-05	65.2337
7.24e-05	130.78
0.000144	152.629
0.000263	181.032
0.000409	211.62
0.000778	395.15
0.00148219	489.099
0.00870921	598.343
0.927987	781.872
