Adsorption isotherm of Methane on CuBTC
DOI: 10.1021/Jp050948l
Adsorbate Methane: InChIKey VNWKTOKETHGBQD-UHFFFAOYSA-N
Temperature: 295 K
Tabular data in the source: 0
pressure (bar)	uptake (mmol/g)
0.0324133	0.0363309
0.0695562	0.086146
0.180985	0.193642
0.279304	0.301138
0.44317	0.453205
0.580817	0.581675
0.770901	0.759961
0.980649	0.912028
