Adsorption isotherm of Hydrogen on IRMOF-1
DOI: 10.1021/Jp050948l
Adsorbate Hydrogen: InChIKey UFHFLCQGNIYNRP-UHFFFAOYSA-N
Temperature: 298 K
Tabular data in the source: 0
pressure (bar)	uptake (mg/g)
9.57747	1.62928
27.4934	4.51331
44.317	7.06962
62.4514	9.23264
78.401	11.5923
95.2245	13.6242
