Adsorption isotherm of Hydrogen on MOF-3
DOI: 10.1021/Jp050948l
Adsorbate Hydrogen: InChIKey UFHFLCQGNIYNRP-UHFFFAOYSA-N
Temperature: 298 K
Tabular data in the source: 0
pressure (bar)	uptake (mg/g)
9.79595	0.189769
27.4934	0.416996
45.4094	0.539349
61.796	0.556828
78.6195	0.504391
95.006	0.469433
