Adsorption isotherm of Hydrogen on C2H2MnO4
DOI: 10.1021/Jp050948l
Adsorbate Hydrogen: InChIKey UFHFLCQGNIYNRP-UHFFFAOYSA-N
Temperature: 78 K
Tabular data in the source: 0
pressure (bar)	uptake (cm3(STP)/g)
0.0171192	2.37211
0.0411528	14.8259
0.0608167	23.1284
0.104514	35.1452
0.196279	50.8763
0.288044	62.2377
0.377623	70.7587
0.467203	77.0948
0.641993	85.6158
1.00031	95.8847
