Adsorption isotherm of Hydrogen on IRMOF-1
DOI: 10.1021/Jp050948l
Adsorbate Hydrogen: InChIKey UFHFLCQGNIYNRP-UHFFFAOYSA-N
Temperature: 298 K
Tabular data in the source: 0
pressure (bar)	uptake (mg/g)
1.05646	0.0187239
6.51864	0.43385
10.2329	0.717884
28.1489	1.91956
45.1909	2.99015
61.796	3.88595
78.6195	4.7599
94.5691	5.50276
