Adsorption isotherm of Hydrogen on MOF-2
DOI: 10.1021/Jp050948l
Adsorbate Hydrogen: InChIKey UFHFLCQGNIYNRP-UHFFFAOYSA-N
Temperature: 298 K
Tabular data in the source: 0
pressure (bar)	uptake (mg/g)
10.0144	0.842726
27.7119	2.2192
44.9724	3.13684
62.2329	4.05449
78.401	4.84105
94.7876	5.43096
