Adsorption isotherm of Methane on C2H2MnO4
DOI: 10.1021/Jp050948l
Adsorbate Methane: InChIKey VNWKTOKETHGBQD-UHFFFAOYSA-N
Temperature: 195 K
Tabular data in the source: 0
pressure (bar)	uptake (cm3(STP)/g)
0.00400996	0.505621
0.0105646	9.94428
0.0258587	25.9376
0.0520772	34.9829
0.0717411	39.0468
0.0914049	42.8485
0.325186	53.2048
0.548044	54.7779
0.78401	56.2199
1.00687	57.2686
