Adsorption isotherm of Hydrogen on IRMOF-14
DOI: 10.1021/Jp050948l
Adsorbate Hydrogen: InChIKey UFHFLCQGNIYNRP-UHFFFAOYSA-N
Temperature: 298 K
Tabular data in the source: 0
pressure (bar)	uptake (mg/g)
1.05646	0.224727
5.64469	0.626744
9.79595	1.09868
18.7539	1.95515
25.7455	2.67179
33.8296	3.35347
41.0397	3.98271
60.7035	5.52086
72.0649	6.35985
94.7876	7.77565
