Adsorption isotherm of Hydrogen on IRMOF-1
DOI: 10.1021/Jp050948l
Adsorbate Hydrogen: InChIKey UFHFLCQGNIYNRP-UHFFFAOYSA-N
Temperature: 298 K
Tabular data in the source: 0
pressure (bar)	uptake (mg/g)
10.4514	0.714139
27.7119	1.95515
44.5354	3.05632
62.0144	4.07011
77.7455	4.8217
94.7876	5.60826
