Adsorption isotherm of Methane on CuBTC
DOI: 10.1021/Jp050948l
Adsorbate Methane: InChIKey VNWKTOKETHGBQD-UHFFFAOYSA-N
Temperature: 295 K
Tabular data in the source: 0
pressure (bar)	uptake (mmol/g)
0.0105646	0.0258435
0.0717411	0.122852
0.191909	0.309003
0.281489	0.424365
0.371069	0.518751
0.465018	0.623625
0.554598	0.699659
0.646363	0.791423
0.821153	0.938247
0.915102	1.02477
