Adsorption isotherm of Hydrogen on IRMOF-8
DOI: 10.1021/Jp050948l
Adsorbate Hydrogen: InChIKey UFHFLCQGNIYNRP-UHFFFAOYSA-N
Temperature: 77 K
Tabular data in the source: 0
pressure (bar)	uptake (mg/g)
0.102329	2.22232
0.191909	3.97022
0.285859	5.36854
0.377623	7.07274
0.460649	8.60215
0.550228	9.78199
0.641993	11.1366
0.823338	13.54
0.915102	14.9383
1.00031	15.987
