Adsorption isotherm of Hydrogen on IRMOF-8
DOI: 10.1021/Jp050948l
Adsorbate Hydrogen: InChIKey UFHFLCQGNIYNRP-UHFFFAOYSA-N
Temperature: 77 K
Tabular data in the source: 0
pressure (bar)	uptake (mg/g)
0.0258587	0.51812
0.0542621	0.955095
0.0804806	1.47946
0.100144	1.87274
0.327371	5.41224
0.554598	8.86434
0.781825	12.3601
