Adsorption isotherm of Hydrogen on IRMOF-1
DOI: 10.1021/Jp050948l
Adsorbate Hydrogen: InChIKey UFHFLCQGNIYNRP-UHFFFAOYSA-N
Temperature: 298 K
Tabular data in the source: 0
pressure (bar)	uptake (mg/g)
0.182509	0.0405726
4.11528	0.390152
10.0144	0.827127
27.7119	2.1599
45.6279	3.29603
61.796	4.25738
78.401	5.21872
94.5691	6.04898
