Adsorption isotherm of Hydrogen on IRMOF-6
DOI: 10.1021/Jp050948l
Adsorbate Hydrogen: InChIKey UFHFLCQGNIYNRP-UHFFFAOYSA-N
Temperature: 298 K
Tabular data in the source: 0
pressure (bar)	uptake (mg/g)
9.35898	1.17046
27.9304	3.00575
44.7539	4.64441
61.1405	6.34861
78.401	7.72508
94.3506	9.10155
