Adsorption isotherm of Hydrogen on IRMOF-1
DOI: 10.1021/Jp050948l
Adsorbate Hydrogen: InChIKey UFHFLCQGNIYNRP-UHFFFAOYSA-N
Temperature: 77 K
Tabular data in the source: 0
pressure (bar)	uptake (mg/g)
0.0105646	0.449449
0.0651864	1.69483
0.108884	2.61247
0.161321	3.85785
0.277119	5.43096
0.336111	6.4797
0.408212	7.3318
0.471573	8.31499
0.600481	9.69147
0.932581	12.7721
