Adsorption isotherm of Methane on CuBTC
DOI: 10.1021/Jp050948l
Adsorbate Methane: InChIKey VNWKTOKETHGBQD-UHFFFAOYSA-N
Temperature: 295 K
Tabular data in the source: 0
pressure (bar)	uptake (mmol/g)
0.0105646	0.0258435
0.0433377	0.086146
0.0695562	0.143827
0.0979595	0.188398
0.194094	0.337844
0.279304	0.463692
0.456279	0.657709
0.644178	0.849104
0.825523	1.00379
0.910733	1.0772
