Adsorption isotherm of Methane on C2H2MnO4
DOI: 10.1021/Jp050948l
Adsorbate Methane: InChIKey VNWKTOKETHGBQD-UHFFFAOYSA-N
Temperature: 195 K
Tabular data in the source: 0
pressure (bar)	uptake (cm3(STP)/g)
0.0171192	0.374528
0.128548	0.636713
0.1788	0.767806
0.285859	1.16108
0.373254	1.94764
0.454094	2.6031
0.51964	4.17621
0.631069	5.74932
0.884514	10.8619
1.01342	14.9258
