Adsorption isotherm of Argon on C2H2MnO4
DOI: 10.1021/Jp050948l
Adsorbate Argon: InChIKey XKRFYHLGVUSROY-UHFFFAOYSA-N
Temperature: 78 K
Tabular data in the source: 0
pressure (bar)	uptake (cm3(STP)/g)
9.73e-09	0.162291
3.07e-08	0.86145
7.14e-08	2.08498
1.03e-07	3.22111
5.56e-07	12.8346
4.33e-06	27.1673
1.21e-05	32.9354
2.99e-05	36.8682
7.39e-05	38.0043
74.586	38.6161
