Adsorption isotherm of Hydrogen on IRMOF-14
DOI: 10.1021/Jp050948l
Adsorbate Hydrogen: InChIKey UFHFLCQGNIYNRP-UHFFFAOYSA-N
Temperature: 298 K
Tabular data in the source: 0
pressure (bar)	uptake (mg/g)
1.05646	0.514995
5.42621	1.82592
9.57747	3.00575
17.6615	5.23432
33.3926	9.23264
41.2581	10.8713
49.1237	12.7721
60.0481	15.4595
83.4262	20.5066
94.5691	22.8007
