Adsorption isotherm of Hydrogen on IRMOF-8
DOI: 10.1021/Jp050948l
Adsorbate Hydrogen: InChIKey UFHFLCQGNIYNRP-UHFFFAOYSA-N
Temperature: 298 K
Tabular data in the source: 0
pressure (bar)	uptake (mg/g)
2.80436	0.119853
6.51864	0.556828
10.2329	0.853971
27.9304	2.23481
45.1909	3.44086
61.5775	4.41968
78.401	5.45095
94.3506	6.32489
