Adsorption isotherm of Hydrogen on MOF-2
DOI: 10.1021/Jp050948l
Adsorbate Hydrogen: InChIKey UFHFLCQGNIYNRP-UHFFFAOYSA-N
Temperature: 298 K
Tabular data in the source: 0
pressure (bar)	uptake (mg/g)
9.57747	0.364559
27.9304	0.941366
45.4094	1.22103
62.6699	1.43078
78.6195	1.44826
94.5691	1.51817
