Adsorption isotherm of Hydrogen on MOF-3
DOI: 10.1021/Jp050948l
Adsorbate Hydrogen: InChIKey UFHFLCQGNIYNRP-UHFFFAOYSA-N
Temperature: 298 K
Tabular data in the source: 0
pressure (bar)	uptake (mg/g)
3.24133	-0.0749208
27.9304	1.56373
45.4094	2.35029
61.796	2.94021
77.964	3.39903
94.3506	3.79231
