Adsorption isotherm of Hydrogen on Cu-MMOM
DOI: 10.1021/Jp050948l
Adsorbate Hydrogen: InChIKey UFHFLCQGNIYNRP-UHFFFAOYSA-N
Temperature: 298 K
Tabular data in the source: 0
pressure (bar)	uptake (mg/g)
0.418986	0.0405726
2.93159	0.0405726
4.67949	0.127968
6.86436	0.193514
8.39378	0.215363
9.92319	0.25906
27.8392	0.586791
45.0997	0.717884
