Adsorption isotherm of Argon on CuBTC
DOI: 10.1021/Jp050948l
Adsorbate Argon: InChIKey XKRFYHLGVUSROY-UHFFFAOYSA-N
Temperature: 273 K
Tabular data in the source: 0
pressure (bar)	uptake (cm3(STP)/g)
1.07e-07	6.24214
3.72e-07	8.42701
2.9e-06	28.0909
2e-05	63.0489
0.0001	130.78
0.000409	152.629
0.000718	200.696
0.000991	336.158
0.00537317	790.612
0.00906688	884.561
0.0796752	1002.54
