Adsorption isotherm of Hydrogen on IRMOF-1
DOI: 10.1021/Jp050948l
Adsorbate Hydrogen: InChIKey UFHFLCQGNIYNRP-UHFFFAOYSA-N
Temperature: 77 K
Tabular data in the source: 0
pressure (bar)	uptake (mg/g)
0.0826654	2.0881
0.281489	5.36542
0.458464	8.51163
0.648548	11.5268
0.825523	14.2142
0.993758	16.5083
