Adsorption isotherm of Nitrogen on C384H192N48O96Tb16
DOI: 10.1002/anie.200702324
Adsorbate Nitrogen: InChIKey IJGRMHOSHXDMSA-UHFFFAOYSA-N
Temperature: 77 K
Tabular data in the source: 0
pressure (bar)	uptake (mmol/g)
0.0104567	7.30394
0.0139422	9.67278
0.0243989	12.0416
0.0418266	14.0157
0.0662255	15.7923
0.0941099	17.1741
0.12548	18.3585
0.15685	19.543
0.18822	20.53
0.21959	21.9118
0.243989	22.8988
0.264902	24.2807
0.275359	26.2547
0.28233	27.6365
0.310214	28.8209
0.331127	29.2157
0.355526	29.808
0.379925	30.4002
0.390382	31.5846
0.397353	33.5586
0.411295	35.3353
0.460093	35.9275
0.515862	35.9275
0.554203	35.9275
0.613457	36.1249
0.676197	36.5197
0.752879	36.5197
0.829561	36.7171
0.888816	37.3093
0.94807	37.5067
0.996868	37.7041
