Adsorption isotherm of Carbon Dioxide on C384H192N48O96Tb16
DOI: 10.1002/anie.200702324
Adsorbate Carbon Dioxide: InChIKey CURLTUGMZLYLDI-UHFFFAOYSA-N
Temperature: 298 K
Tabular data in the source: 0
pressure (bar)	uptake (mmol/g)
0.827674	0.73298
4.78793	2.51307
9.90177	4.6073
15.0164	6.80623
19.9642	8.69103
25.2425	10.7853
29.697	12.6701
34.6471	14.869
39.7587	16.6491
44.3753	18.2198
