Adsorption isotherm of Nitrogen on C384H192N48O96Tb16
DOI: 10.1002/anie.200702324
Adsorbate Nitrogen: InChIKey IJGRMHOSHXDMSA-UHFFFAOYSA-N
Temperature: 77 K
Tabular data in the source: 0
pressure (bar)	uptake (mmol/g)
0.0069711	2.96106
0.0139422	5.3299
0.0174278	7.89615
0.0348555	9.47538
0.0522833	10.8572
0.0871388	12.0416
0.118509	13.0286
0.15685	14.4105
0.184734	15.3975
0.212619	16.5819
0.243989	17.5689
0.264902	18.9508
0.275359	20.7274
0.289301	21.7144
0.324156	22.3066
0.348555	22.7014
0.365983	23.0962
0.386896	23.491
0.393867	24.0832
0.404324	26.8469
0.411295	27.4391
0.446151	27.6365
0.481006	27.8339
0.508891	28.0313
0.543746	28.0313
0.578602	28.2287
0.613457	28.2287
0.648313	28.2287
0.683168	28.4261
0.718024	28.4261
0.752879	28.4261
0.784249	28.6235
0.819105	28.6235
0.85396	28.6235
0.888816	28.8209
0.923671	28.8209
0.958527	28.8209
0.993382	28.8209
