Adsorption isotherm of Carbon Dioxide on C384H192N48O96Tb16
DOI: 10.1002/anie.200702324
Adsorbate Carbon Dioxide: InChIKey CURLTUGMZLYLDI-UHFFFAOYSA-N
Temperature: 298 K
Tabular data in the source: 0
pressure (bar)	uptake (mmol/g)
0.331221	0.314134
0.8254	0.418846
1.98051	0.942403
4.95089	2.30364
12.7001	4.92144
14.8436	5.65442
19.9521	7.01567
24.8977	8.58633
29.678	10.0523
34.7881	11.623
39.5692	13.1936
42.6987	13.8219
