Adsorption isotherm of Carbon Dioxide on Zeolite CHA
DOI: 10.1021/Jp3099768
Adsorbate Carbon Dioxide: InChIKey CURLTUGMZLYLDI-UHFFFAOYSA-N
Temperature: 323 K
Tabular data in the source: 0
pressure (bar)	uptake (mmol/g)
0.00842373	0.016
0.0532926	0.056
0.100993	0.12
0.154316	0.2
0.201996	0.248
0.235681	0.304
0.263723	0.328
0.303	0.376
0.333873	0.424
0.364736	0.464
0.398411	0.512
0.434856	0.536
0.471322	0.576
0.499384	0.616
0.53865	0.656
0.569514	0.696
0.600377	0.736
0.636842	0.776
0.664894	0.808
0.704161	0.848
0.743438	0.896
0.768699	0.936
0.802343	0.96
0.838798	0.992
0.864049	1.024
0.900514	1.064
0.931357	1.088
0.970624	1.128
1.00429	1.168
