Adsorption isotherm of Carbon Dioxide on Zeolite EDI
DOI: 10.1021/Jp3099768
Adsorbate Carbon Dioxide: InChIKey CURLTUGMZLYLDI-UHFFFAOYSA-N
Temperature: 298 K
Tabular data in the source: 0
pressure (bar)	uptake (mmol/g)
0.0287206	0.0686515
0.0496084	0.150848
0.078329	0.205847
0.101828	0.28808
0.130548	0.363557
0.154047	0.425311
0.177546	0.493891
0.198433	0.562436
0.224543	0.6174
0.248042	0.672328
0.27154	0.727257
0.305483	0.795979
0.321149	0.843975
0.344648	0.898903
0.375979	0.953938
0.399478	1.01569
0.415144	1.04321
0.443864	1.09821
0.475196	1.15324
0.501305	1.20821
0.519582	1.24259
0.54047	1.28383
0.574413	1.3389
0.603133	1.3939
0.642298	1.44904
0.665796	1.49714
0.70235	1.54542
0.736292	1.59367
0.767624	1.64188
0.801567	1.66282
0.840731	1.72479
0.866841	1.75927
0.900783	1.80752
0.937337	1.8285
0.960836	1.86295
1	1.90444
