Adsorption isotherm of Carbon Dioxide on Zeolite MFI
DOI: 10.1021/Jp3099768
Adsorbate Carbon Dioxide: InChIKey CURLTUGMZLYLDI-UHFFFAOYSA-N
Temperature: 408 K
Tabular data in the source: 0
pressure (bar)	uptake (mmol/g)
0.0748548	0.0189248
0.168401	0.0379078
0.280727	0.0756409
0.486512	0.113665
0.598751	0.132706
0.804536	0.170731
0.991629	0.208697
1.30965	0.265762
1.64637	0.322886
2.00178	0.380068
2.35718	0.43725
2.61896	0.456757
2.82474	0.494781
3.01184	0.532747
3.29239	0.571004
3.62902	0.609436
4.00303	0.647985
4.30227	0.6863
4.65759	0.72479
5.01283	0.744588
5.40562	0.801887
5.74233	0.85901
6.00411	0.878517
