Adsorption isotherm of Carbon Dioxide on Zeolite MFI
DOI: 10.1021/Jp3099768
Adsorbate Carbon Dioxide: InChIKey CURLTUGMZLYLDI-UHFFFAOYSA-N
Temperature: 373 K
Tabular data in the source: 0
pressure (bar)	uptake (mmol/g)
0.131208	0.0545051
0.229539	0.10907
0.393685	0.152566
0.492136	0.185233
0.607085	0.206921
0.803928	0.283205
0.984331	0.359518
1.42751	0.479147
1.80494	0.598896
2.0184	0.642302
2.41238	0.740123
2.80643	0.826996
3.00345	0.870432
3.23341	0.902859
3.39755	0.946355
3.8081	1.02225
4.02168	1.04376
4.38303	1.09784
4.62942	1.13024
5.00727	1.17334
5.36862	1.22743
5.64789	1.25977
6.0093	1.3029
