Adsorption isotherm of Carbon Dioxide on Zeolite CHA
DOI: 10.1021/Jp3099768
Adsorbate Carbon Dioxide: InChIKey CURLTUGMZLYLDI-UHFFFAOYSA-N
Temperature: 298 K
Tabular data in the source: 0
pressure (bar)	uptake (mmol/g)
0.0313313	0.000148691
0.0730887	0.00983839
0.104393	0.0242242
0.143549	0.0291558
0.174871	0.0340502
0.200954	0.0484113
0.234888	0.0533181
0.263581	0.0676916
0.305339	0.0773813
0.339263	0.0870338
0.360151	0.0871329
0.404501	0.106326
0.435833	0.106475
0.464527	0.120849
0.49846	0.125755
0.529782	0.13065
0.561087	0.145036
0.605456	0.154738
0.636769	0.164378
0.665481	0.16926
0.702025	0.174179
0.73595	0.183832
0.769874	0.193484
0.801188	0.203124
0.842945	0.212814
0.861204	0.222392
0.90035	0.232069
0.92384	0.236927
0.95256	0.237063
0.996911	0.256257
