Adsorption isotherm of Carbon Dioxide on Zeolite DDR
DOI: 10.1021/Jp3099768
Adsorbate Carbon Dioxide: InChIKey CURLTUGMZLYLDI-UHFFFAOYSA-N
Temperature: 298 K
Tabular data in the source: 0
pressure (bar)	uptake (mmol/g)
0.0315205	0.0367347
0.0683299	0.0918367
0.102468	0.128571
0.131389	0.171429
0.173398	0.214286
0.220697	0.27551
0.257453	0.312245
0.299444	0.34898
0.336218	0.391837
0.399206	0.446939
0.443833	0.489796
0.498932	0.532653
0.54615	0.566327
0.601257	0.612245
0.63536	0.636735
0.708801	0.685714
0.740295	0.713265
0.798011	0.756122
0.842585	0.780612
0.90291	0.820408
0.939604	0.835714
1.00253	0.869388
