Adsorption isotherm of Nitrogen on Zeolite CHA
DOI: 10.1021/Jp3099768
Adsorbate Nitrogen: InChIKey IJGRMHOSHXDMSA-UHFFFAOYSA-N
Temperature: 298 K
Tabular data in the source: 0
pressure (bar)	uptake (mmol/g)
0.0104526	-0.00469616
0.0600517	0.000284991
0.0991981	0.0099623
0.135742	0.0148815
0.164463	0.0150178
0.203627	0.0152037
0.234949	0.0200981
0.266272	0.0249925
0.300214	0.0251536
0.331537	0.030048
0.365479	0.0302091
0.399421	0.0303701
0.433363	0.0305312
0.467297	0.035438
0.503841	0.0403572
0.532553	0.0452392
0.563884	0.0453879
0.600428	0.0503071
0.63176	0.0504558
0.663082	0.0553502
0.702246	0.0555361
0.73618	0.0604429
0.764891	0.0653249
0.798842	0.0607403
0.832776	0.0656471
0.864098	0.0705415
0.903271	0.0659816
0.934585	0.0756218
0.958083	0.0757333
1.00247	0.0759439
