Adsorption isotherm of Carbon Dioxide on Zeolite DDR
DOI: 10.1021/Jp3099768
Adsorbate Carbon Dioxide: InChIKey CURLTUGMZLYLDI-UHFFFAOYSA-N
Temperature: 298 K
Tabular data in the source: 0
pressure (bar)	uptake (mmol/g)
0.0497827	0.0153061
0.102174	0.027551
0.146722	0.0428571
0.193869	0.0520408
0.246242	0.0581633
0.293416	0.0765306
0.33271	0.0857143
0.398208	0.104082
0.4532	0.110204
0.492521	0.128571
0.542277	0.134694
0.597277	0.143878
0.649678	0.159184
0.696834	0.171429
0.801599	0.189796
0.901138	0.211224
1.00066	0.226531
