Adsorption isotherm of Carbon Dioxide on Zeolite LTA
DOI: 10.1021/Jp3099768
Adsorbate Carbon Dioxide: InChIKey CURLTUGMZLYLDI-UHFFFAOYSA-N
Temperature: 303 K
Tabular data in the source: 0
pressure (bar)	uptake (mmol/g)
0.206571	0.206251
0.319247	0.318752
0.450788	0.468694
0.601022	0.618695
0.807593	0.824946
1.01416	1.0312
1.14571	1.18114
1.4087	1.46233
1.67161	1.72483
1.85949	1.93103
2.1224	2.19353
2.31002	2.34364
2.51633	2.49382
2.7229	2.70007
2.89156	2.79405
3.04171	2.92536
3.32296	3.11316
3.54796	3.26339
3.77287	3.39493
4.01648	3.52653
4.26008	3.65813
4.52229	3.7711
4.74712	3.88395
5.0468	4.01572
5.27154	4.10988
5.57105	4.20427
5.81439	4.2798
6.05782	4.37401
