Adsorption isotherm of Carbon Dioxide on Zeolite LTA
DOI: 10.1021/Jp3099768
Adsorbate Carbon Dioxide: InChIKey CURLTUGMZLYLDI-UHFFFAOYSA-N
Temperature: 298 K
Tabular data in the source: 0
pressure (bar)	uptake (mmol/g)
0.0235234	0.00843135
0.0705339	0.0336272
0.104492	0.0504354
0.143667	0.0714319
0.17499	0.0923958
0.206348	0.105026
0.245505	0.13019
0.302978	0.157512
0.342135	0.182676
0.373484	0.19739
0.396962	0.216237
0.415241	0.22673
0.470105	0.251959
0.504045	0.272934
0.545847	0.291858
0.600656	0.329586
0.64504	0.356854
0.699885	0.38625
0.746896	0.411445
0.770383	0.42821
0.80435	0.442935
0.817384	0.455489
0.867013	0.480696
0.906179	0.503776
0.916595	0.516319
0.947936	0.533116
1.00016	0.562501
