Adsorption isotherm of Nitrogen on Zeolite CHA
DOI: 10.1021/Jp3099768
Adsorbate Nitrogen: InChIKey IJGRMHOSHXDMSA-UHFFFAOYSA-N
Temperature: 298 K
Tabular data in the source: 0
pressure (bar)	uptake (mmol/g)
0.0078329	0.0146494
0.0522193	0.0213766
0.101828	0.0280267
0.151436	0.0420593
0.203655	0.0412883
0.250653	0.0553595
0.266319	0.0551282
0.302872	0.0693536
0.334204	0.0762735
0.362924	0.083232
0.402089	0.0974188
0.43342	0.0969562
0.467363	0.103838
0.498695	0.110758
0.532637	0.110256
0.569191	0.117099
0.600522	0.131402
0.631854	0.138322
0.663185	0.137859
0.699739	0.137319
0.723238	0.144355
0.762402	0.143777
0.798956	0.158002
0.845953	0.164691
0.898172	0.186067
0.942559	0.178029
1	0.191946
