Adsorption isotherm of Carbon Dioxide on Zeolite MTT
DOI: 10.1021/Jp3099768
Adsorbate Carbon Dioxide: InChIKey CURLTUGMZLYLDI-UHFFFAOYSA-N
Temperature: 298 K
Tabular data in the source: 0
pressure (bar)	uptake (mmol/g)
0.0182292	0.04811
0.0364583	0.105842
0.0494792	0.153952
0.078125	0.230928
0.0963542	0.283849
0.127604	0.33677
0.151042	0.394502
0.179687	0.447423
0.200521	0.500344
0.226562	0.52921
0.270833	0.610997
0.299479	0.663918
0.322917	0.687973
0.364583	0.755326
0.395833	0.793814
0.4375	0.846735
0.466146	0.875601
0.5	0.9189
0.536458	0.942955
0.570312	0.96701
0.601562	0.995876
0.638021	1.02955
0.666667	1.04399
0.700521	1.07285
0.736979	1.0921
0.765625	1.11134
0.799479	1.13058
0.830729	1.14983
0.859375	1.16426
0.901042	1.18832
0.9375	1.21237
0.958333	1.2268
1	1.23643
