Adsorption isotherm of Nitrogen on Zeolite FER
DOI: 10.1021/Jp3099768
Adsorbate Nitrogen: InChIKey IJGRMHOSHXDMSA-UHFFFAOYSA-N
Temperature: 298 K
Tabular data in the source: 0
pressure (bar)	uptake (mmol/g)
0.0078329	4.44e-16
0.0548392	0.00614334
0.107085	0.0245734
0.148879	0.0368601
0.201116	0.0491468
0.235076	0.0614334
0.269036	0.0737201
0.300386	0.0860068
0.331726	0.0921502
0.363067	0.0982935
0.40486	0.11058
0.436192	0.11058
0.46755	0.12901
0.498882	0.12901
0.543286	0.141297
0.577237	0.14744
0.603356	0.153584
0.634696	0.159727
0.660824	0.172014
0.705237	0.190444
0.739189	0.196587
0.799259	0.208874
0.83845	0.227304
0.89852	0.23959
0.937702	0.251877
0.96383	0.264164
0.997763	0.25802
