Adsorption isotherm of Nitrogen on Zeolite LTA
DOI: 10.1021/Jp3099768
Adsorbate Nitrogen: InChIKey IJGRMHOSHXDMSA-UHFFFAOYSA-N
Temperature: 298 K
Tabular data in the source: 0
pressure (bar)	uptake (mmol/g)
0.00787139	0.00962199
0.0497472	0.004811
0.0995034	0.014433
0.149251	0.019244
0.201625	0.028866
0.233038	0.028866
0.295901	0.04811
0.327315	0.04811
0.400623	0.052921
0.432045	0.057732
0.500135	0.0721649
0.536784	0.0721649
0.599629	0.0817869
0.631052	0.0865979
0.701751	0.0962199
0.754125	0.105842
0.806481	0.105842
0.837903	0.110653
0.89814	0.125086
0.937416	0.129897
1.00025	0.134708
