Adsorption isotherm of Nitrogen on Zeolite BEA
DOI: 10.1021/Jp3099768
Adsorbate Nitrogen: InChIKey IJGRMHOSHXDMSA-UHFFFAOYSA-N
Temperature: 298 K
Tabular data in the source: 0
pressure (bar)	uptake (mmol/g)
0.0495816	0.00819113
0.0704694	0.00819113
0.104376	0.0191126
0.14093	0.0191126
0.169624	0.0273038
0.203557	0.0300341
0.245306	0.0382253
0.266185	0.0409556
0.302721	0.0464164
0.34708	0.0546075
0.399282	0.0600683
0.446261	0.065529
0.472353	0.0709898
0.501065	0.0737201
0.540194	0.0846416
0.566303	0.0846416
0.597608	0.0928328
0.641977	0.0982935
0.6733	0.101024
0.702011	0.103754
0.738547	0.109215
0.76987	0.111945
0.801166	0.122867
0.83771	0.125597
0.866422	0.128328
0.900338	0.136519
0.929049	0.139249
0.962983	0.14198
0.999519	0.14744
