Adsorption isotherm of Carbon Dioxide on Zeolite MOR
DOI: 10.1021/Jp3099768
Adsorbate Carbon Dioxide: InChIKey CURLTUGMZLYLDI-UHFFFAOYSA-N
Temperature: 298 K
Tabular data in the source: 0
pressure (bar)	uptake (mmol/g)
0.0104712	0.0610169
0.0314136	0.128814
0.0471204	0.210169
0.0575916	0.237288
0.078534	0.305085
0.0994764	0.386441
0.128272	0.467797
0.149215	0.535593
0.175393	0.616949
0.198953	0.671186
0.225131	0.738983
0.248691	0.779661
0.272251	0.840678
0.301047	0.901695
0.319372	0.928814
0.342932	0.983051
0.371728	1.05085
0.397906	1.10508
0.439791	1.17288
0.47644	1.22034
0.502618	1.2678
0.536649	1.32203
0.568063	1.37627
0.602094	1.41695
0.633508	1.46441
0.662304	1.49831
0.693717	1.53898
0.735602	1.57966
0.764398	1.61356
0.801047	1.64068
0.837696	1.70847
0.871728	1.72203
0.900524	1.76949
0.934555	1.78983
0.971204	1.81695
1	1.85085
