Adsorption isotherm of Carbon Dioxide on Zeolite ERI
DOI: 10.1021/Jp3099768
Adsorbate Carbon Dioxide: InChIKey CURLTUGMZLYLDI-UHFFFAOYSA-N
Temperature: 298 K
Tabular data in the source: 0
pressure (bar)	uptake (mmol/g)
0.023622	0.0612245
0.0498688	0.122449
0.0761155	0.176871
0.102362	0.244898
0.146982	0.353741
0.173228	0.401361
0.2021	0.469388
0.246719	0.564626
0.270341	0.619048
0.296588	0.666667
0.401575	0.863946
0.44357	0.952381
0.501312	1.05442
0.535433	1.12245
0.60105	1.20408
0.658793	1.31293
0.700787	1.35374
0.742782	1.39456
0.795276	1.46939
0.83727	1.51701
0.900262	1.59864
0.937008	1.63946
1.00525	1.71429
