Adsorption isotherm of Carbon Dioxide on Zeolite RHO
DOI: 10.1021/Jp3099768
Adsorbate Carbon Dioxide: InChIKey CURLTUGMZLYLDI-UHFFFAOYSA-N
Temperature: 298 K
Tabular data in the source: 0
pressure (bar)	uptake (mmol/g)
0.0461538	0.178082
0.0692308	0.260274
0.0974359	0.328767
0.151282	0.479452
0.197436	0.643836
0.253846	0.821918
0.3	0.945205
0.353846	1.10959
0.4	1.23288
0.458974	1.39726
0.5	1.50685
0.564103	1.67123
0.6	1.75342
0.664103	1.91781
0.7	2
0.741026	2.09589
0.802564	2.20548
0.848718	2.31507
0.902564	2.41096
0.95641	2.50685
1	2.57534
