Adsorption isotherm of Nitrogen on Zeolite ISV
DOI: 10.1021/Jp3099768
Adsorbate Nitrogen: InChIKey IJGRMHOSHXDMSA-UHFFFAOYSA-N
Temperature: 298 K
Tabular data in the source: 0
pressure (bar)	uptake (mmol/g)
0.0308123	0.0025641
0.10084	0.0102564
0.154062	0.0205128
0.201681	0.025641
0.246499	0.0358974
0.296919	0.0435897
0.35014	0.0487179
0.40056	0.0538462
0.448179	0.0615385
0.501401	0.0692308
0.551821	0.0769231
0.602241	0.0820513
0.64986	0.0871795
0.703081	0.0974359
0.756303	0.105128
0.798319	0.110256
0.845938	0.115385
0.904762	0.120513
0.946779	0.130769
1	0.135897
