Adsorption isotherm of Carbon Dioxide on Zeolite MER
DOI: 10.1021/Jp3099768
Adsorbate Carbon Dioxide: InChIKey CURLTUGMZLYLDI-UHFFFAOYSA-N
Temperature: 298 K
Tabular data in the source: 0
pressure (bar)	uptake (mmol/g)
0.0435897	0.246575
0.0769231	0.39726
0.0974359	0.506849
0.125641	0.630137
0.151282	0.739726
0.164103	0.780822
0.215385	0.958904
0.235897	1.0274
0.258974	1.09589
0.279487	1.17808
0.315385	1.27397
0.338462	1.34247
0.361538	1.39726
0.384615	1.46575
0.405128	1.50685
0.428205	1.56164
0.451282	1.61644
0.474359	1.65753
0.494872	1.71233
0.517949	1.75342
0.541026	1.79452
0.566667	1.83562
0.587179	1.89041
0.610256	1.90411
0.633333	1.94521
0.658974	1.9863
0.682051	2.0274
0.707692	2.05479
0.730769	2.09589
0.753846	2.12329
0.779487	2.15068
0.802564	2.19178
0.828205	2.21918
0.851282	2.24658
0.876923	2.28767
0.9	2.32877
0.923077	2.32877
0.948718	2.35616
0.971795	2.38356
0.997436	2.41096
