Adsorption isotherm of Carbon Dioxide on Zeolite RHO
DOI: 10.1021/Jp3099768
Adsorbate Carbon Dioxide: InChIKey CURLTUGMZLYLDI-UHFFFAOYSA-N
Temperature: 298 K
Tabular data in the source: 0
pressure (bar)	uptake (mmol/g)
0.0989133	0.0276551
0.153583	0.0387991
0.203026	0.0607622
0.24727	0.0772733
0.299318	0.0992505
0.340966	0.110324
0.372198	0.121341
0.398213	0.137753
0.437258	0.148812
0.504939	0.165451
0.543975	0.181933
0.570016	0.182075
0.598626	0.203925
0.700135	0.237018
0.801644	0.270111
0.89534	0.303161
0.996857	0.33083
