Adsorption isotherm of Carbon Dioxide on Zeolite ISV
DOI: 10.1021/Jp3099768
Adsorbate Carbon Dioxide: InChIKey CURLTUGMZLYLDI-UHFFFAOYSA-N
Temperature: 298 K
Tabular data in the source: 0
pressure (bar)	uptake (mmol/g)
0.0112045	0.00769231
0.0420168	0.0230769
0.0728291	0.0410256
0.0952381	0.0564103
0.170868	0.0974359
0.201681	0.123077
0.243697	0.14359
0.266106	0.158974
0.302521	0.182051
0.338936	0.202564
0.364146	0.217949
0.394958	0.238462
0.439776	0.261538
0.464986	0.279487
0.498599	0.297436
0.540616	0.320513
0.568627	0.335897
0.596639	0.35641
0.638655	0.379487
0.663866	0.392308
0.70028	0.410256
0.742297	0.433333
0.770308	0.451282
0.80112	0.471795
0.843137	0.494872
0.871148	0.510256
0.89916	0.528205
0.941176	0.551282
0.971989	0.564103
1	0.584615
