Adsorption isotherm of Carbon Dioxide on Zeolite MOR
DOI: 10.1021/Jp3099768
Adsorbate Carbon Dioxide: InChIKey CURLTUGMZLYLDI-UHFFFAOYSA-N
Temperature: 298 K
Tabular data in the source: 0
pressure (bar)	uptake (mmol/g)
0.0339426	0.0705471
0.0574413	0.112861
0.078329	0.1599
0.104439	0.206915
0.133159	0.253918
0.174935	0.329142
0.203655	0.380858
0.227154	0.413744
0.245431	0.446655
0.274151	0.493657
0.29765	0.540684
0.318538	0.554727
0.347258	0.592302
0.370757	0.625188
0.409922	0.662714
0.417755	0.681532
0.443864	0.714406
0.467363	0.747292
0.503916	0.780116
0.543081	0.822356
0.571802	0.859931
0.603133	0.902207
0.642298	0.930306
0.665796	0.953764
0.70235	0.991302
0.736292	1.01942
0.759791	1.05231
0.804178	1.0851
0.832898	1.0991
0.866841	1.12723
0.898172	1.16479
0.939948	1.19288
1.00261	1.235
