Adsorption isotherm of Nitrogen on Zeolite FER
DOI: 10.1021/Jp3099768
Adsorbate Nitrogen: InChIKey IJGRMHOSHXDMSA-UHFFFAOYSA-N
Temperature: 298 K
Tabular data in the source: 0
pressure (bar)	uptake (mmol/g)
0.039267	0.00491545
0.0602094	0.014474
0.102094	0.033591
0.133508	0.0290098
0.162304	0.0338758
0.201571	0.0482507
0.23822	0.0578835
0.256545	0.0626999
0.301047	0.0770995
0.335079	0.08672
0.363874	0.0915859
0.400524	0.101219
0.437173	0.106122
0.463351	0.110975
0.502618	0.12062
0.536649	0.125511
0.562827	0.135094
0.599476	0.139998
0.638743	0.149643
0.667539	0.154509
0.701571	0.159399
0.751309	0.169094
0.801047	0.183518
0.832461	0.188397
0.863874	0.188545
0.903141	0.198191
0.926702	0.203032
0.955497	0.203168
0.997382	0.217555
