Adsorption isotherm of Nitrogen on Zeolite DDR
DOI: 10.1021/Jp3099768
Adsorbate Nitrogen: InChIKey IJGRMHOSHXDMSA-UHFFFAOYSA-N
Temperature: 298 K
Tabular data in the source: 0
pressure (bar)	uptake (mmol/g)
0.0104801	0.00306122
0.099521	0.0153061
0.14665	0.0183673
0.199033	0.027551
0.256651	0.0367347
0.295936	0.0428571
0.335221	0.0489796
0.400684	0.055102
0.460893	0.055102
0.500196	0.0673469
0.549943	0.0704082
0.602317	0.0765306
0.649455	0.0826531
0.701829	0.0887755
0.743723	0.0918367
0.798714	0.0979592
0.898217	0.107143
0.942729	0.110204
0.997721	0.116327
