Adsorption isotherm of Nitrogen on Zeolite RHO
DOI: 10.1021/Jp3099768
Adsorbate Nitrogen: InChIKey IJGRMHOSHXDMSA-UHFFFAOYSA-N
Temperature: 298 K
Tabular data in the source: 0
pressure (bar)	uptake (mmol/g)
0.0497557	0.0200669
0.0995027	0.0301003
0.151859	0.0301003
0.201606	0.0401338
0.233019	0.0401338
0.259215	0.0602007
0.301117	0.0802676
0.32206	0.0802676
0.361335	0.090301
0.40322	0.090301
0.429407	0.100334
0.458203	0.100334
0.497479	0.110368
0.53151	0.110368
0.560323	0.130435
0.602199	0.120401
0.631013	0.140468
0.662435	0.150502
0.699084	0.150502
0.727889	0.160535
0.764538	0.160535
0.801205	0.180602
0.830001	0.180602
0.869268	0.180602
0.90069	0.190635
0.929494	0.200669
0.95829	0.200669
1.0002	0.230769
