Adsorption isotherm of Carbon Dioxide on Zeolite GIS
DOI: 10.1021/Jp3099768
Adsorbate Carbon Dioxide: InChIKey CURLTUGMZLYLDI-UHFFFAOYSA-N
Temperature: 298 K
Tabular data in the source: 0
pressure (bar)	uptake (mmol/g)
0.0102564	0.150685
0.0179487	0.273973
0.025641	0.410959
0.0333333	0.534247
0.0435897	0.671233
0.0487179	0.808219
0.0589744	0.931507
0.0666667	1.05479
0.074359	1.19178
0.0820513	1.31507
0.0923077	1.45205
0.102564	1.60274
0.107692	1.68493
0.117949	1.80822
0.128205	1.93151
0.138462	2.05479
0.148718	2.19178
0.161538	2.28767
0.174359	2.41096
0.187179	2.52055
0.2	2.63014
0.212821	2.68493
0.230769	2.76712
0.248718	2.86301
0.269231	2.9589
0.287179	3.0411
0.302564	3.12329
0.315385	3.15068
0.338462	3.20548
0.361538	3.26027
0.384615	3.31507
0.405128	3.36986
0.428205	3.41096
0.453846	3.45205
0.476923	3.49315
0.497436	3.53425
0.520513	3.54795
0.546154	3.56164
0.569231	3.58904
0.592308	3.63014
0.617949	3.63014
0.641026	3.65753
0.666667	3.67123
0.689744	3.69863
0.715385	3.71233
0.741026	3.72603
0.766667	3.73973
0.792308	3.75342
0.815385	3.76712
0.841026	3.78082
0.866667	3.79452
0.892308	3.80822
0.917949	3.80822
0.941026	3.82192
0.966667	3.82192
0.992308	3.84932
1	3.84932
