Adsorption isotherm of Carbon Dioxide on Zeolite BEA
DOI: 10.1021/Jp3099768
Adsorbate Carbon Dioxide: InChIKey CURLTUGMZLYLDI-UHFFFAOYSA-N
Temperature: 298 K
Tabular data in the source: 0
pressure (bar)	uptake (mmol/g)
0.104394	0.0136519
0.153985	0.0191126
0.187909	0.0245734
0.198353	0.0245734
0.234889	0.0300341
0.263592	0.0354949
0.302747	0.0382253
0.344496	0.0464164
0.375819	0.0491468
0.401919	0.0518771
0.435844	0.0573379
0.454121	0.0573379
0.503703	0.065529
0.540238	0.0709898
0.602875	0.0791809
0.657687	0.0846416
0.699445	0.0901024
0.720324	0.0928328
0.751637	0.0982935
0.798608	0.106485
0.832551	0.106485
0.850827	0.106485
0.897798	0.114676
0.931723	0.120137
0.963045	0.122867
0.99697	0.128328
