Adsorption isotherm of Nitrogen on Zeolite LTA
DOI: 10.1021/Jp3099768
Adsorbate Nitrogen: InChIKey IJGRMHOSHXDMSA-UHFFFAOYSA-N
Temperature: 298 K
Tabular data in the source: 0
pressure (bar)	uptake (mmol/g)
0.102074	0.00459198
0.159647	0.00899853
0.206757	0.0112782
0.264339	0.0136014
0.300969	0.0179207
0.369003	0.0244542
0.400416	0.0245851
0.46846	0.0290352
0.502481	0.0312603
0.562672	0.0356778
0.599293	0.0420804
0.66211	0.0444255
0.701367	0.0466724
0.772019	0.0532167
0.803432	0.0533476
0.855778	0.0556491
0.905506	0.0579396
0.957834	0.0644076
1.00233	0.0666764
