Adsorption isotherm of Carbon Dioxide on Zeolite DDR
DOI: 10.1021/Jp3099768
Adsorbate Carbon Dioxide: InChIKey CURLTUGMZLYLDI-UHFFFAOYSA-N
Temperature: 348 K
Tabular data in the source: 0
pressure (bar)	uptake (mmol/g)
0.223602	0.112846
0.298137	0.206536
0.409938	0.225576
0.521739	0.281999
0.614907	0.338364
0.838509	0.432519
1.02484	0.526557
1.36025	0.62106
1.75155	0.715737
2.03106	0.810066
2.32919	0.885761
2.6646	0.961572
3.03727	1.00012
3.31677	1.07575
3.68944	1.1143
4.00621	1.15267
4.32298	1.20973
4.62112	1.24804
5.03106	1.2867
5.59006	1.34452
6	1.38318
