Adsorption isotherm of Nitrogen on Zeolite MER
DOI: 10.1021/Jp3099768
Adsorbate Nitrogen: InChIKey IJGRMHOSHXDMSA-UHFFFAOYSA-N
Temperature: 298 K
Tabular data in the source: 0
pressure (bar)	uptake (mmol/g)
0.0549738	0.0122034
0.0968586	0.0183051
0.146597	0.0244068
0.198953	0.0305085
0.243455	0.0366102
0.298429	0.0488136
0.350785	0.0549153
0.400524	0.0732203
0.442408	0.0671186
0.497382	0.079322
0.554974	0.0854237
0.573298	0.0854237
0.599476	0.0854237
0.628272	0.0915254
0.657068	0.0915254
0.698953	0.0976271
0.725131	0.0976271
0.764398	0.103729
0.803665	0.103729
0.82199	0.109831
0.850785	0.115932
0.86911	0.115932
0.895288	0.122034
0.924084	0.128136
0.971204	0.134237
1.00262	0.134237
