Adsorption isotherm of Nitrogen on Zeolite ERI
DOI: 10.1021/Jp3099768
Adsorbate Nitrogen: InChIKey IJGRMHOSHXDMSA-UHFFFAOYSA-N
Temperature: 298 K
Tabular data in the source: 0
pressure (bar)	uptake (mmol/g)
0.0498688	0.00680272
0.0918635	0.0204082
0.149606	0.0272109
0.2021	0.0340136
0.257218	0.0544218
0.299213	0.0680272
0.349081	0.0748299
0.401575	0.0748299
0.44357	0.0952381
0.498688	0.102041
0.530184	0.115646
0.572178	0.122449
0.60105	0.129252
0.656168	0.142857
0.695538	0.156463
0.76378	0.156463
0.805774	0.170068
0.845144	0.176871
0.902887	0.183673
0.944882	0.197279
1.00262	0.197279
