Adsorption isotherm of Carbon Dioxide on Zeolite LTL
DOI: 10.1021/Jp3099768
Adsorbate Carbon Dioxide: InChIKey CURLTUGMZLYLDI-UHFFFAOYSA-N
Temperature: 298 K
Tabular data in the source: 0
pressure (bar)	uptake (mmol/g)
0.0444758	0.00511336
0.0732629	0.00679366
0.099423	0.0102086
0.154388	0.0118436
0.198846	0.0204172
0.248576	0.0220613
0.274745	0.0237461
0.300896	0.0288912
0.337527	0.032288
0.366314	0.0339683
0.402946	0.0373651
0.434342	0.040771
0.468373	0.0407122
0.499751	0.0475783
0.539009	0.0492405
0.570414	0.0509162
0.599174	0.0577869
0.633206	0.057728
0.662002	0.0576782
0.701233	0.0645307
0.730029	0.0644809
0.769278	0.0678732
0.798047	0.0730138
0.821607	0.072973
0.863475	0.0763608
0.902724	0.0797531
0.926284	0.0797123
0.949836	0.0814017
1.00216	0.0882316
