Adsorption isotherm of Nitrogen on Zeolite MTT
DOI: 10.1021/Jp3099768
Adsorbate Nitrogen: InChIKey IJGRMHOSHXDMSA-UHFFFAOYSA-N
Temperature: 298 K
Tabular data in the source: 0
pressure (bar)	uptake (mmol/g)
0.0078125	0.00962199
0.0520833	0.014433
0.101562	0.019244
0.151042	0.024055
0.200521	0.033677
0.231771	0.038488
0.260417	0.043299
0.299479	0.043299
0.333333	0.043299
0.359375	0.057732
0.401042	0.057732
0.442708	0.062543
0.46875	0.067354
0.502604	0.0721649
0.53125	0.0769759
0.559896	0.0817869
0.596354	0.0865979
0.632812	0.0914089
0.664062	0.0962199
0.703125	0.0962199
0.729167	0.101031
0.757812	0.105842
0.802083	0.110653
0.828125	0.115464
0.859375	0.125086
0.895833	0.125086
0.932292	0.129897
0.966146	0.139519
1	0.134708
