Adsorption isotherm of Carbon Dioxide on Zeolite FER
DOI: 10.1021/Jp3099768
Adsorbate Carbon Dioxide: InChIKey CURLTUGMZLYLDI-UHFFFAOYSA-N
Temperature: 298 K
Tabular data in the source: 0
pressure (bar)	uptake (mmol/g)
0.0445026	0.0238591
0.065445	0.0286879
0.0994764	0.0430381
0.143979	0.0574377
0.201571	0.0908182
0.256545	0.114727
0.295812	0.124372
0.356021	0.148306
0.403141	0.167447
0.447644	0.186577
0.5	0.201014
0.54712	0.220155
0.596859	0.244039
0.643979	0.253722
0.670157	0.258575
0.698953	0.263441
0.751309	0.282608
0.801047	0.301762
0.842932	0.316149
0.897906	0.335328
0.939791	0.344985
1	0.368919
