Adsorption isotherm of Nitrogen on Zeolite ERI
DOI: 10.1021/Jp3099768
Adsorbate Nitrogen: InChIKey IJGRMHOSHXDMSA-UHFFFAOYSA-N
Temperature: 298 K
Tabular data in the source: 0
pressure (bar)	uptake (mmol/g)
0.0262467	0
0.0708661	0
0.0971396	0.0122034
0.147035	0.0244068
0.204796	0.0325424
0.241559	0.040678
0.270448	0.0488136
0.301953	0.0528814
0.336091	0.0610169
0.364972	0.0650847
0.399092	0.0650847
0.438489	0.0772881
0.46737	0.0813559
0.501499	0.0854237
0.538262	0.0935593
0.559269	0.0976271
0.598665	0.109831
0.632795	0.113898
0.666916	0.113898
0.703688	0.126102
0.743067	0.130169
0.774572	0.134237
0.800836	0.142373
0.837582	0.142373
0.866471	0.150508
0.90585	0.154576
0.945238	0.162712
0.974118	0.16678
1.00037	0.170847
