Adsorption isotherm of Carbon Dioxide on Zeolite MWW
DOI: 10.1021/Jp3099768
Adsorbate Carbon Dioxide: InChIKey CURLTUGMZLYLDI-UHFFFAOYSA-N
Temperature: 298 K
Tabular data in the source: 0
pressure (bar)	uptake (mmol/g)
0.0314136	0.00405405
0.065445	0.0121622
0.102094	0.0283784
0.13089	0.0324324
0.167539	0.0445946
0.201571	0.0608108
0.227749	0.0689189
0.272251	0.0851351
0.301047	0.0891892
0.332461	0.0972973
0.363874	0.105405
0.397906	0.117568
0.445026	0.133784
0.502618	0.15
0.602094	0.178378
0.651832	0.194595
0.698953	0.206757
0.748691	0.214865
0.801047	0.231081
0.850785	0.243243
0.903141	0.259459
0.95288	0.275676
1	0.27973
