Adsorption isotherm of Carbon Dioxide on Zeolite MWW
DOI: 10.1021/Jp3099768
Adsorbate Carbon Dioxide: InChIKey CURLTUGMZLYLDI-UHFFFAOYSA-N
Temperature: 298 K
Tabular data in the source: 0
pressure (bar)	uptake (mmol/g)
0.0078534	0.030765
0.026178	0.0800243
0.052356	0.153905
0.0759162	0.22777
0.102094	0.301651
0.13089	0.381691
0.151832	0.449397
0.17801	0.504848
0.198953	0.554123
0.227749	0.634164
0.251309	0.683455
0.274869	0.745033
0.301047	0.794341
0.316754	0.837441
0.342932	0.880605
0.36911	0.929913
0.400524	0.991539
0.41623	1.01007
0.468586	1.10254
0.497382	1.158
0.539267	1.20741
0.568063	1.25059
0.596859	1.29991
0.636126	1.33701
0.667539	1.38635
0.696335	1.42339
0.740838	1.46667
0.764398	1.49753
0.798429	1.54074
0.840314	1.584
0.897906	1.66422
0.934555	1.69516
1	1.76314
