Adsorption isotherm of Carbon Dioxide on Zeolite MFI
DOI: 10.1021/Jp3099768
Adsorbate Carbon Dioxide: InChIKey CURLTUGMZLYLDI-UHFFFAOYSA-N
Temperature: 303 K
Tabular data in the source: 0
pressure (bar)	uptake (mmol/g)
0.226661	0.505379
0.28361	0.692472
0.415326	0.879799
0.49088	1.04826
0.603642	1.17945
0.810301	1.40439
1.01678	1.59195
1.2603	1.70486
1.48513	1.81771
1.69109	1.89312
1.99095	2.06228
2.36513	2.13821
2.68333	2.23266
3.00144	2.30842
3.41292	2.36577
3.78694	2.40432
4.0301	2.44246
4.36673	2.48089
4.75944	2.5195
5.00252	2.53895
5.35784	2.57744
5.78784	2.59747
6.01223	2.61686
