Adsorption isotherm of Carbon Dioxide on Zeolite CHA
DOI: 10.1021/Jp3099768
Adsorbate Carbon Dioxide: InChIKey CURLTUGMZLYLDI-UHFFFAOYSA-N
Temperature: 313 K
Tabular data in the source: 0
pressure (bar)	uptake (mmol/g)
0.0196384	0.024
0.050522	0.08
0.0701808	0.12
0.101054	0.168
0.126295	0.192
0.148775	0.248
0.168434	0.288
0.199318	0.344
0.235814	0.408
0.29755	0.496
0.345261	0.568
0.367721	0.608
0.401406	0.664
0.463153	0.76
0.50244	0.816
0.57258	0.904
0.603453	0.952
0.668001	1.048
0.701686	1.104
0.746575	1.16
0.80549	1.232
0.867217	1.312
0.903682	1.352
0.973832	1.448
1.00469	1.48
