Adsorption isotherm of Nitrogen on Zeolite GIS
DOI: 10.1021/Jp3099768
Adsorbate Nitrogen: InChIKey IJGRMHOSHXDMSA-UHFFFAOYSA-N
Temperature: 298 K
Tabular data in the source: 0
pressure (bar)	uptake (mmol/g)
0.0989583	0.0149518
0.151042	0.0156604
0.200521	0.0163336
0.239583	0.0168651
0.302083	0.0313209
0.356771	0.0320649
0.398437	0.0326318
0.447917	0.0469104
0.497396	0.0203727
0.539062	0.0345451
0.598958	0.0217545
0.640625	0.0223214
0.700521	0.0367418
0.752604	0.0374504
0.796875	0.0244473
0.895833	0.0257937
0.945312	0.0264668
0.994792	0.0407455
