Adsorption isotherm of Nitrogen on Zeolite MTT
DOI: 10.1021/Jp3099768
Adsorbate Nitrogen: InChIKey IJGRMHOSHXDMSA-UHFFFAOYSA-N
Temperature: 298 K
Tabular data in the source: 0
pressure (bar)	uptake (mmol/g)
0.0395	0.0100017
0.0974031	0.0131844
0.142157	0.01979
0.197438	0.02636
0.252718	0.03293
0.300104	0.0395267
0.344858	0.0461322
0.40013	0.0493239
0.45277	0.0525244
0.497524	0.05913
0.550164	0.0623305
0.605436	0.0655222
0.637023	0.0687938
0.700198	0.0753372
0.75547	0.0785288
0.802864	0.0885038
0.842338	0.0883705
0.902872	0.0915443
0.944995	0.0981588
1.0029	0.101342
