Adsorption isotherm of Carbon Dioxide on Zeolite MOR
DOI: 10.1021/Jp3099768
Adsorbate Carbon Dioxide: InChIKey CURLTUGMZLYLDI-UHFFFAOYSA-N
Temperature: 298 K
Tabular data in the source: 0
pressure (bar)	uptake (mmol/g)
0.0417755	0.0233721
0.0626632	0.0279874
0.101828	0.0466581
0.133159	0.055938
0.167102	0.0699194
0.198433	0.0886269
0.232376	0.0978945
0.27154	0.111851
0.302872	0.125845
0.334204	0.130411
0.373368	0.144368
0.402089	0.163088
0.425587	0.167691
0.472585	0.186325
0.503916	0.200318
0.522193	0.204946
0.569191	0.218866
0.597911	0.232872
0.626632	0.242164
0.668407	0.251395
0.70235	0.255949
0.723238	0.265278
0.765013	0.283936
0.801567	0.293191
0.825065	0.302508
0.859008	0.31649
0.895561	0.321031
0.958225	0.339591
1	0.353535
