Adsorption isotherm of Carbon Dioxide on Zeolite FAU
DOI: 10.1021/Jp3099768
Adsorbate Carbon Dioxide: InChIKey CURLTUGMZLYLDI-UHFFFAOYSA-N
Temperature: 298 K
Tabular data in the source: 0
pressure (bar)	uptake (mmol/g)
0.0183246	0.0103471
0.0497382	0.0269067
0.104712	0.0497004
0.15445	0.0745453
0.206806	0.103519
0.248691	0.128348
0.277487	0.138716
0.301047	0.153198
0.316754	0.16354
0.342932	0.175965
0.374346	0.194586
0.403141	0.209079
0.41623	0.219415
0.447644	0.231851
0.47644	0.246343
0.5	0.260825
0.515707	0.271166
0.568063	0.302202
0.602094	0.320829
0.620419	0.331176
0.672775	0.36015
0.704188	0.380833
0.725131	0.391186
0.772251	0.422211
0.803665	0.43877
0.82199	0.451179
0.866492	0.476013
0.903141	0.498769
0.929319	0.51738
0.973822	0.546338
1.00524	0.567021
