Adsorption isotherm of Nitrogen on Zeolite BEA
DOI: 10.1021/Jp3099768
Adsorbate Nitrogen: InChIKey IJGRMHOSHXDMSA-UHFFFAOYSA-N
Temperature: 298 K
Tabular data in the source: 0
pressure (bar)	uptake (mmol/g)
0.0313227	0.00273038
0.130513	0.0109215
0.167048	0.0163823
0.200982	0.0191126
0.232305	0.021843
0.263627	0.0245734
0.302792	0.0245734
0.334106	0.0300341
0.365437	0.0300341
0.401973	0.0354949
0.438526	0.0354949
0.464636	0.0354949
0.498552	0.043686
0.532503	0.0409556
0.566437	0.043686
0.600362	0.0491468
0.631693	0.0491468
0.657794	0.0518771
0.702172	0.0546075
0.72567	0.0546075
0.764817	0.0600683
0.801362	0.0627986
0.832693	0.0627986
0.866627	0.065529
0.903171	0.0682594
0.92667	0.0682594
0.960604	0.0709898
1.00236	0.0764505
