Adsorption isotherm of Nitrogen on Zeolite CHA
DOI: 10.1021/Jp3099768
Adsorbate Nitrogen: InChIKey IJGRMHOSHXDMSA-UHFFFAOYSA-N
Temperature: 298 K
Tabular data in the source: 0
pressure (bar)	uptake (mmol/g)
0.0234985	0.000111518
0.0548298	0.000260209
0.0991893	0.014708
0.148788	0.0196892
0.211424	0.0342237
0.245349	0.0438762
0.302772	0.0536403
0.336705	0.0585471
0.362815	0.058671
0.401961	0.0683483
0.435895	0.0732551
0.464597	0.0828828
0.498522	0.0925354
0.537686	0.0927212
0.555945	0.102299
0.600331	0.10251
0.634256	0.112163
0.660356	0.117032
0.699511	0.121964
0.743871	0.136412
0.769989	0.13179
0.798701	0.136672
0.835236	0.146337
0.856124	0.146436
0.900492	0.156138
0.929204	0.16102
0.960526	0.165914
0.99707	0.170834
