Adsorption isotherm of Nitrogen on Zeolite GME
DOI: 10.1021/Jp3099768
Adsorbate Nitrogen: InChIKey IJGRMHOSHXDMSA-UHFFFAOYSA-N
Temperature: 298 K
Tabular data in the source: 0
pressure (bar)	uptake (mmol/g)
0.0473684	0.0052199
0.0973684	0.0159048
0.152632	0.0265609
0.202632	0.0372459
0.247368	0.0424802
0.297368	0.0476857
0.352632	0.0583417
0.392105	0.0636049
0.402632	0.0690267
0.452632	0.0687527
0.494737	0.0794809
0.502632	0.0739582
0.536842	0.0902091
0.55	0.0846575
0.6	0.089863
0.671053	0.100433
0.705263	0.100245
0.734211	0.111045
0.805263	0.116136
0.847368	0.126864
0.905263	0.126547
0.955263	0.131752
1.00526	0.142437
