Adsorption isotherm of Carbon Dioxide on Zeolite GME
DOI: 10.1021/Jp3099768
Adsorbate Carbon Dioxide: InChIKey CURLTUGMZLYLDI-UHFFFAOYSA-N
Temperature: 298 K
Tabular data in the source: 0
pressure (bar)	uptake (mmol/g)
0.0315789	0.0217448
0.0631579	0.0434895
0.0947368	0.0707138
0.136842	0.0924009
0.197368	0.119466
0.239474	0.152112
0.3	0.173699
0.355263	0.200793
0.4	0.233425
0.444737	0.249618
0.5	0.276712
0.557895	0.303792
0.605263	0.325451
0.660526	0.352545
0.697368	0.368782
0.760526	0.390353
0.8	0.417534
0.863158	0.428147
0.905263	0.449834
0.952632	0.471492
1.00526	0.482163
