Adsorption isotherm of Nitrogen on Zeolite DDR
DOI: 10.1021/Jp3099768
Adsorbate Nitrogen: InChIKey IJGRMHOSHXDMSA-UHFFFAOYSA-N
Temperature: 265 K
Tabular data in the source: 0
pressure (bar)	uptake (mmol/g)
0.0867209	0.0326531
0.216802	0.0734694
0.325203	0.114286
0.390244	0.142857
0.476965	0.163265
0.607046	0.2
0.780488	0.253061
0.99729	0.302041
1.38753	0.383673
1.71274	0.444898
1.9729	0.497959
2.12466	0.518367
2.44986	0.559184
2.73171	0.595918
2.99187	0.636735
3.31707	0.669388
3.68564	0.706122
4.01084	0.746939
4.24932	0.771429
4.61789	0.808163
5.02981	0.840816
5.37669	0.869388
5.68022	0.893878
6.00542	0.922449
6.43902	0.946939
7.00271	0.979592
7.5664	1.01224
8	1.03673
