Adsorption isotherm of Nitrogen on Zeolite EDI
DOI: 10.1021/Jp3099768
Adsorbate Nitrogen: InChIKey IJGRMHOSHXDMSA-UHFFFAOYSA-N
Temperature: 298 K
Tabular data in the source: 0
pressure (bar)	uptake (mmol/g)
0.0652565	0.00810811
0.101784	0.0202703
0.140922	0.0324324
0.200947	0.0445946
0.229642	0.0567568
0.263575	0.0608108
0.300102	0.072973
0.339258	0.077027
0.373183	0.0851351
0.401886	0.0932432
0.435811	0.101351
0.474966	0.105405
0.50105	0.117568
0.534983	0.121622
0.568908	0.12973
0.600222	0.137838
0.631545	0.141892
0.670692	0.15
0.702006	0.158108
0.741153	0.166216
0.764634	0.174324
0.798559	0.182432
0.832492	0.186486
0.858584	0.194595
0.900351	0.198649
0.957766	0.210811
0.999515	0.222973
