Adsorption isotherm of Carbon Dioxide on Zeolite MER
DOI: 10.1021/Jp3099768
Adsorbate Carbon Dioxide: InChIKey CURLTUGMZLYLDI-UHFFFAOYSA-N
Temperature: 298 K
Tabular data in the source: 0
pressure (bar)	uptake (mmol/g)
0.0340314	0.0183051
0.065445	0.0427119
0.0994764	0.0610169
0.125654	0.079322
0.170157	0.103729
0.201571	0.122034
0.225131	0.122034
0.272251	0.146441
0.298429	0.170847
0.327225	0.176949
0.36911	0.195254
0.397906	0.219661
0.426702	0.237966
0.468586	0.250169
0.497382	0.268475
0.528796	0.274576
0.565445	0.298983
0.599476	0.329492
0.63089	0.329492
0.667539	0.353898
0.698953	0.366102
0.727749	0.372203
0.759162	0.384407
0.801047	0.408814
0.84555	0.421017
0.897906	0.445424
0.950262	0.463729
1	0.488136
