Adsorption isotherm of Carbon Dioxide on Zeolite GME
DOI: 10.1021/Jp3099768
Adsorbate Carbon Dioxide: InChIKey CURLTUGMZLYLDI-UHFFFAOYSA-N
Temperature: 298 K
Tabular data in the source: 0
pressure (bar)	uptake (mmol/g)
0.0205128	0.109589
0.0538462	0.287671
0.102564	0.493151
0.148718	0.671233
0.2	0.808219
0.302564	1.06849
0.4	1.28767
0.5	1.45205
0.597436	1.58904
0.697436	1.72603
0.8	1.86301
0.9	2.0137
0.953846	2.09589
1.00256	2.13699
