Adsorption isotherm of Carbon Dioxide on Zeolite LTL
DOI: 10.1021/Jp3099768
Adsorbate Carbon Dioxide: InChIKey CURLTUGMZLYLDI-UHFFFAOYSA-N
Temperature: 298 K
Tabular data in the source: 0
pressure (bar)	uptake (mmol/g)
0.0235602	0.0279567
0.0497382	0.0454695
0.0759162	0.0699509
0.0994764	0.0909389
0.123037	0.104958
0.149215	0.132924
0.175393	0.153921
0.206806	0.178421
0.235602	0.216849
0.269634	0.237873
0.298429	0.25888
0.34555	0.30434
0.374346	0.321862
0.397906	0.346334
0.442408	0.384817
0.471204	0.405823
0.505236	0.430332
0.541885	0.461818
0.565445	0.482806
0.599476	0.5108
0.641361	0.545789
0.667539	0.563302
0.704188	0.587819
0.740838	0.615822
0.769634	0.643797
0.801047	0.664812
0.840314	0.692823
0.866492	0.713821
0.900524	0.734845
0.939791	0.762856
0.968586	0.783863
1.00524	0.811865
