Adsorption isotherm of Nitrogen on Zeolite FAU
DOI: 10.1021/Jp3099768
Adsorbate Nitrogen: InChIKey IJGRMHOSHXDMSA-UHFFFAOYSA-N
Temperature: 298 K
Tabular data in the source: 0
pressure (bar)	uptake (mmol/g)
0.0626369	0.00402379
0.107006	0.00670273
0.143542	0.00939241
0.206188	0.0120463
0.268834	0.0147002
0.300148	0.0173971
0.347145	0.0173327
0.399338	0.0213708
0.461993	0.0226548
0.503742	0.0267072
0.542898	0.0280234
0.597711	0.0306881
0.662968	0.0333384
0.702115	0.0360245
0.733447	0.0359816
0.801305	0.0399982
0.848294	0.0413037
0.900487	0.0453418
0.942254	0.0466544
0.999678	0.0493155
