Adsorption isotherm of Carbon Dioxide on Zeolite MFI
DOI: 10.1021/Jp3099768
Adsorbate Carbon Dioxide: InChIKey CURLTUGMZLYLDI-UHFFFAOYSA-N
Temperature: 338 K
Tabular data in the source: 0
pressure (bar)	uptake (mmol/g)
0.0981512	0.0874121
0.212681	0.185743
0.278015	0.262266
0.392605	0.349649
0.490696	0.44801
0.589087	0.491626
0.801948	0.644522
0.99861	0.753652
1.27735	0.88453
1.49057	0.971733
1.68729	1.06991
1.98246	1.20076
2.2615	1.2769
2.47484	1.3422
2.78669	1.42922
2.98359	1.49456
3.44339	1.58131
3.78818	1.65732
3.96882	1.68984
4.39586	1.75475
4.79015	1.79783
5.03661	1.81928
5.3487	1.8625
5.64441	1.89481
5.98938	1.93798
