Adsorption isotherm of Carbon Dioxide on Zeolite MTT
DOI: 10.1021/Jp3099768
Adsorbate Carbon Dioxide: InChIKey CURLTUGMZLYLDI-UHFFFAOYSA-N
Temperature: 298 K
Tabular data in the source: 0
pressure (bar)	uptake (mmol/g)
0.0421582	0.0201278
0.0948249	0.0334634
0.14222	0.0434384
0.197536	0.0635218
0.24493	0.0734969
0.289702	0.0868591
0.339746	0.103582
0.395036	0.11353
0.447711	0.130244
0.500378	0.14358
0.539878	0.153581
0.60043	0.163512
0.642571	0.176883
0.703132	0.190192
0.747895	0.200176
0.803193	0.213503
0.847957	0.223487
0.908518	0.236796
0.953272	0.243401
1.00068	0.256754
