Adsorption isotherm of Nitrogen on Zeolite FAU
DOI: 10.1021/Jp3099768
Adsorbate Nitrogen: InChIKey IJGRMHOSHXDMSA-UHFFFAOYSA-N
Temperature: 298 K
Tabular data in the source: 0
pressure (bar)	uptake (mmol/g)
0.0522108	0.00129834
0.0965708	0.00534716
0.154004	0.00663835
0.211428	0.00929941
0.263621	0.0133375
0.336701	0.017347
0.365422	0.0173076
0.399347	0.0200009
0.435901	0.0199508
0.472446	0.0212706
0.532472	0.025298
0.566406	0.0266214
0.629043	0.0306451
0.67081	0.0319578
0.730836	0.0359852
0.772611	0.0359279
0.824795	0.0413359
0.869173	0.042645
0.921384	0.0439433
0.95792	0.046633
0.999678	0.0493155
