Adsorption isotherm of Nitrogen on Zeolite DDR
DOI: 10.1021/Jp3099768
Adsorbate Nitrogen: InChIKey IJGRMHOSHXDMSA-UHFFFAOYSA-N
Temperature: 298 K
Tabular data in the source: 0
pressure (bar)	uptake (mmol/g)
0.00786244	0.00483222
0.0471388	0.00981505
0.104749	0.0196803
0.149252	0.0198937
0.1964	0.0345033
0.23044	0.039461
0.259236	0.0395991
0.295904	0.0493639
0.33518	0.0543468
0.356123	0.0544472
0.400644	0.0642497
0.426831	0.0691697
0.458254	0.0741149
0.49753	0.0790977
0.523717	0.0840178
0.557758	0.0889756
0.599661	0.0987655
0.625848	0.103686
0.662507	0.108656
0.699156	0.108832
0.798661	0.123692
0.830083	0.128637
0.851035	0.133532
0.900783	0.138565
0.942686	0.148355
0.997669	0.153413
