Adsorption isotherm of Carbon Dioxide on Zeolite BEA
DOI: 10.1021/Jp3099768
Adsorbate Carbon Dioxide: InChIKey CURLTUGMZLYLDI-UHFFFAOYSA-N
Temperature: 298 K
Tabular data in the source: 0
pressure (bar)	uptake (mmol/g)
0.0416774	0.0300341
0.0755576	0.0491468
0.101605	0.0682594
0.145893	0.0982935
0.171958	0.111945
0.203219	0.133788
0.242303	0.158362
0.27097	0.174744
0.30223	0.196587
0.336075	0.226621
0.367344	0.245734
0.398613	0.264846
0.437698	0.28942
0.466365	0.305802
0.497625	0.327645
0.541931	0.352218
0.570599	0.368601
0.596637	0.390444
0.638323	0.417747
0.669584	0.43959
0.698251	0.455973
0.742557	0.480546
0.765993	0.499659
0.799882	0.516041
0.838949	0.546075
0.865005	0.562457
0.898894	0.57884
0.930146	0.603413
0.966637	0.622526
1.0005	0.647099
