Adsorption isotherm of Nitrogen on Zeolite MFI
DOI: 10.1021/Jp3099768
Adsorbate Nitrogen: InChIKey IJGRMHOSHXDMSA-UHFFFAOYSA-N
Temperature: 298 K
Tabular data in the source: 0
pressure (bar)	uptake (mmol/g)
0.104747	0.0160629
0.136151	0.0118097
0.164956	0.0158146
0.201614	0.0197872
0.235654	0.0237705
0.261832	0.0236625
0.303725	0.0276135
0.332521	0.0274948
0.363934	0.0273652
0.400592	0.0313378
0.421543	0.0353751
0.460819	0.0393368
0.500085	0.0391749
0.531508	0.043169
0.568148	0.0388942
0.602179	0.0387539
0.628366	0.0427696
0.665014	0.0426185
0.701672	0.046591
0.735694	0.042327
0.764499	0.046332
0.801157	0.0503045
0.827335	0.0501966
0.858739	0.0459433
0.898015	0.0499051
0.934673	0.0538776
0.955615	0.0537913
1.00013	0.0577314
