Adsorption isotherm of Carbon Dioxide on Zeolite ERI
DOI: 10.1021/Jp3099768
Adsorbate Carbon Dioxide: InChIKey CURLTUGMZLYLDI-UHFFFAOYSA-N
Temperature: 298 K
Tabular data in the source: 0
pressure (bar)	uptake (mmol/g)
0.0236843	0.0284746
0.0473687	0.0569492
0.0736866	0.0894915
0.0973709	0.117966
0.121046	0.142373
0.142088	0.162712
0.171049	0.20339
0.202616	0.235932
0.218417	0.260339
0.249976	0.288814
0.271035	0.317288
0.302611	0.353898
0.321046	0.382373
0.344713	0.402712
0.368397	0.431186
0.399956	0.459661
0.415748	0.48
0.447297	0.504407
0.473615	0.536949
0.502558	0.569492
0.518342	0.585763
0.547266	0.610169
0.5762	0.638644
0.605134	0.667119
0.639334	0.703729
0.673509	0.728136
0.707701	0.760678
0.744517	0.79322
0.770835	0.825763
0.810276	0.858305
0.841835	0.88678
0.873375	0.907119
0.904933	0.935593
0.941741	0.964068
0.973308	0.99661
1.00486	1.02102
