Adsorption isotherm of Nitrogen on Zeolite LTL
DOI: 10.1021/Jp3099768
Adsorbate Nitrogen: InChIKey IJGRMHOSHXDMSA-UHFFFAOYSA-N
Temperature: 298 K
Tabular data in the source: 0
pressure (bar)	uptake (mmol/g)
0.0104532	0.00344212
0.0287689	0.00514054
0.0549562	0.00336513
0.099432	0.00847849
0.201482	0.0169525
0.253811	0.0220522
0.334937	0.0271022
0.374195	0.0287644
0.402991	0.0287145
0.429151	0.0321295
0.465792	0.0337962
0.502414	0.0389232
0.541654	0.0440456
0.578304	0.0439822
0.604464	0.0473971
0.638487	0.0490684
0.664656	0.0507532
0.701287	0.05415
0.743163	0.0558077
0.769332	0.0574925
0.800719	0.0626285
0.855684	0.0642635
0.900178	0.0659166
0.947281	0.0692954
0.99961	0.0743951
