Adsorption isotherm of Nitrogen on Zeolite DDR
DOI: 10.1021/Jp3099768
Adsorbate Nitrogen: InChIKey IJGRMHOSHXDMSA-UHFFFAOYSA-N
Temperature: 298 K
Tabular data in the source: 0
pressure (bar)	uptake (mmol/g)
0.036667	0.00612245
0.0994942	0.00612245
0.141397	0.0122449
0.204224	0.0122449
0.240882	0.0153061
0.298474	0.0153061
0.345621	0.0244898
0.397977	0.0244898
0.434635	0.027551
0.497462	0.027551
0.534112	0.027551
0.602183	0.0306122
0.644068	0.0306122
0.701669	0.0336735
0.740936	0.0336735
0.798527	0.0336735
0.832568	0.0367347
0.861363	0.0367347
0.90063	0.0367347
0.963458	0.0367347
1.00012	0.0428571
