Adsorption isotherm of Carbon Dioxide on Zeolite CHA
DOI: 10.1021/Jp3099768
Adsorbate Carbon Dioxide: InChIKey CURLTUGMZLYLDI-UHFFFAOYSA-N
Temperature: 301 K
Tabular data in the source: 0
pressure (bar)	uptake (mmol/g)
0.047782	0.128
0.0983448	0.24
0.115213	0.288
0.146117	0.36
0.202292	0.48
0.247222	0.568
0.303417	0.704
0.348368	0.808
0.401742	0.928
0.443871	1.016
0.502857	1.144
0.542165	1.216
0.567436	1.264
0.603932	1.328
0.643239	1.4
0.676934	1.464
0.699394	1.504
0.744314	1.584
0.772386	1.632
0.806081	1.696
0.842577	1.76
0.87345	1.808
0.904324	1.856
0.937998	1.904
0.974464	1.944
1.00534	1.992
