Adsorption isotherm of Nitrogen on Zeolite EDI
DOI: 10.1021/Jp3099768
Adsorbate Nitrogen: InChIKey IJGRMHOSHXDMSA-UHFFFAOYSA-N
Temperature: 298 K
Tabular data in the source: 0
pressure (bar)	uptake (mmol/g)
0.0104439	0.00696852
0.0548303	0.00757447
0.104439	0.0219036
0.148825	0.0361614
0.203655	0.0505618
0.234987	0.0646415
0.261097	0.0649979
0.302872	0.0792201
0.336815	0.0796835
0.365535	0.0869015
0.402089	0.101052
0.438642	0.115203
0.464752	0.129212
0.498695	0.129675
0.527415	0.143719
0.563969	0.151044
0.603133	0.16523
0.637076	0.17252
0.663185	0.179702
0.70235	0.187063
0.746736	0.194495
0.801567	0.215721
0.83812	0.21622
0.856397	0.230121
0.903394	0.244415
0.932115	0.251633
0.958225	0.251989
1.00261	0.273073
