Adsorption isotherm of Nitrogen on Zeolite EDI
DOI: 10.1021/Jp3099768
Adsorbate Nitrogen: InChIKey IJGRMHOSHXDMSA-UHFFFAOYSA-N
Temperature: 298 K
Tabular data in the source: 0
pressure (bar)	uptake (mmol/g)
0.0548215	0.00405405
0.104412	0.0121622
0.130522	0.0121622
0.167067	0.0162162
0.203602	0.0243243
0.229703	0.0283784
0.266248	0.0324324
0.300182	0.0364865
0.331513	0.0364865
0.360216	0.0445946
0.404603	0.0445946
0.425473	0.0527027
0.464628	0.0567568
0.501182	0.0567568
0.537736	0.0567568
0.566447	0.0608108
0.597761	0.0689189
0.634324	0.0648649
0.663035	0.0689189
0.699571	0.077027
0.733514	0.077027
0.762226	0.0810811
0.80139	0.0810811
0.832713	0.0851351
0.866647	0.0891892
0.897969	0.0932432
0.929301	0.0932432
0.963244	0.0932432
0.997177	0.0972973
