Adsorption isotherm of Carbon Dioxide on Zeolite GIS
DOI: 10.1021/Jp3099768
Adsorbate Carbon Dioxide: InChIKey CURLTUGMZLYLDI-UHFFFAOYSA-N
Temperature: 298 K
Tabular data in the source: 0
pressure (bar)	uptake (mmol/g)
0.0391645	0.0549546
0.104439	0.137475
0.154047	0.233388
0.203655	0.315696
0.250653	0.397968
0.302872	0.480311
0.349869	0.562583
0.402089	0.644926
0.451697	0.727234
0.498695	0.809506
0.553525	0.891885
0.600522	0.974157
0.657963	1.05657
0.697128	1.13874
0.749347	1.22108
0.798956	1.28978
0.843342	1.34481
0.898172	1.44079
0.934726	1.49571
0.966057	1.52335
1	1.57823
