Adsorption isotherm of Carbon Dioxide on Zeolite RHO
DOI: 10.1021/Jp3099768
Adsorbate Carbon Dioxide: InChIKey CURLTUGMZLYLDI-UHFFFAOYSA-N
Temperature: 298 K
Tabular data in the source: 0
pressure (bar)	uptake (mmol/g)
0.0259973	0.0272596
0.0545634	0.0762281
0.075326	0.119731
0.103892	0.168699
0.124663	0.206778
0.145444	0.239433
0.171406	0.288387
0.197385	0.326494
0.246723	0.413542
0.298673	0.495179
0.345442	0.560518
0.363583	0.614853
0.397375	0.653003
0.415551	0.685644
0.44153	0.723751
0.472701	0.772733
0.498671	0.816264
0.571429	0.914286
0.597408	0.952393
0.610394	0.974158
0.638969	1.0177
0.664957	1.05039
0.698723	1.10481
0.737705	1.15383
0.76628	1.19738
0.797459	1.24094
0.833856	1.2791
0.865026	1.32808
0.896223	1.36079
0.940414	1.40985
0.961185	1.44793
0.994977	1.48607
