Adsorption isotherm of Carbon Dioxide on Zeolite MTT
DOI: 10.1021/Jp3099768
Adsorbate Carbon Dioxide: InChIKey CURLTUGMZLYLDI-UHFFFAOYSA-N
Temperature: 298 K
Tabular data in the source: 0
pressure (bar)	uptake (mmol/g)
0.0264489	0.0505863
0.0502129	0.0809114
0.0739592	0.10448
0.0951183	0.144949
0.129426	0.181995
0.153199	0.215699
0.171673	0.235907
0.195455	0.272988
0.216579	0.299944
0.250869	0.330234
0.266721	0.353829
0.30102	0.387497
0.319494	0.407704
0.348512	0.434633
0.37489	0.458193
0.398645	0.48514
0.425005	0.501943
0.472471	0.538944
0.501507	0.57263
0.535806	0.606298
0.57007	0.626452
0.601719	0.653373
0.643869	0.670122
0.672869	0.690294
0.70451	0.713836
0.733511	0.734008
0.770415	0.757532
0.80466	0.77093
0.841564	0.794454
0.90746	0.834772
0.941697	0.844792
1.00493	0.871605
