Adsorption isotherm of Carbon Dioxide on Zeolite EDI
DOI: 10.1021/Jp3099768
Adsorbate Carbon Dioxide: InChIKey CURLTUGMZLYLDI-UHFFFAOYSA-N
Temperature: 298 K
Tabular data in the source: 0
pressure (bar)	uptake (mmol/g)
0.0286412	0.0364865
0.0572825	0.072973
0.104112	0.15
0.132754	0.186486
0.169184	0.243243
0.200418	0.287838
0.223846	0.32027
0.247274	0.352703
0.273313	0.385135
0.301964	0.417568
0.322781	0.45
0.34882	0.482432
0.374859	0.514865
0.400889	0.551351
0.419113	0.575676
0.450383	0.604054
0.471218	0.628378
0.497239	0.668919
0.518092	0.685135
0.546742	0.717568
0.56755	0.754054
0.598811	0.786486
0.643109	0.827027
0.669157	0.855405
0.700409	0.891892
0.739486	0.932432
0.765533	0.960811
0.802016	0.993243
0.838482	1.03378
0.864538	1.05811
0.898419	1.08649
0.937513	1.11892
0.963561	1.1473
1.00006	1.17162
