Adsorption isotherm of Nitrogen on Zeolite MOR
DOI: 10.1021/Jp3099768
Adsorbate Nitrogen: InChIKey IJGRMHOSHXDMSA-UHFFFAOYSA-N
Temperature: 298 K
Tabular data in the source: 0
pressure (bar)	uptake (mmol/g)
0.0652742	0.00911992
0.0992167	0.0136737
0.140992	0.0134768
0.164491	0.0180798
0.203655	0.0178952
0.234987	0.0224613
0.258486	0.0270644
0.300261	0.0315813
0.349869	0.0313474
0.373368	0.0359505
0.4047	0.0405166
0.436031	0.0403689
0.45953	0.0449719
0.503916	0.0400489
0.535248	0.044615
0.563969	0.0491934
0.600522	0.0537349
0.629243	0.0583133
0.657963	0.058178
0.699739	0.0532672
0.73107	0.0578333
0.762402	0.0623995
0.798956	0.0575133
0.832898	0.0573533
0.861619	0.0619318
0.900783	0.066461
0.937337	0.0662886
0.958225	0.070904
1	0.0659933
