Adsorption isotherm of Carbon Dioxide on Zeolite FER
DOI: 10.1021/Jp3099768
Adsorbate Carbon Dioxide: InChIKey CURLTUGMZLYLDI-UHFFFAOYSA-N
Temperature: 298 K
Tabular data in the source: 0
pressure (bar)	uptake (mmol/g)
0.0183246	0.0379245
0.039267	0.0853209
0.0732984	0.151698
0.0994764	0.213308
0.125654	0.256
0.172775	0.346087
0.198953	0.398238
0.222513	0.426728
0.269634	0.507356
0.298429	0.55006
0.319372	0.573808
0.366492	0.644977
0.400524	0.692435
0.41623	0.701969
0.463351	0.768408
0.497382	0.806407
0.513089	0.82067
0.568063	0.877687
0.599476	0.910943
0.638743	0.944237
0.698953	1.00601
0.73822	1.03457
0.803665	1.09164
0.840314	1.11546
0.903141	1.16306
0.939791	1.18215
1	1.225
