Adsorption isotherm of Carbon Dioxide on Zeolite DDR
DOI: 10.1021/Jp3099768
Adsorbate Carbon Dioxide: InChIKey CURLTUGMZLYLDI-UHFFFAOYSA-N
Temperature: 273 K
Tabular data in the source: 0
pressure (bar)	uptake (mmol/g)
0.0493151	0.307873
0.0986301	0.560801
0.213699	0.967816
0.279452	1.2208
0.410959	1.43008
0.476712	1.56219
0.608219	1.68355
0.789041	1.83806
1.00274	1.92675
1.26575	2.00464
1.64384	2.1269
1.98904	2.24904
2.36712	2.30537
2.67945	2.36146
3.00822	2.38465
3.40274	2.44104
3.8137	2.49749
4.01096	2.52019
4.42192	2.52169
4.78356	2.54499
5.0137	2.54584
5.37534	2.58013
5.76986	2.61454
6.03288	2.62649
6.18082	2.62704
