Adsorption isotherm of Carbon Dioxide on Zeolite LTA
DOI: 10.1021/Jp3099768
Adsorbate Carbon Dioxide: InChIKey CURLTUGMZLYLDI-UHFFFAOYSA-N
Temperature: 298 K
Tabular data in the source: 0
pressure (bar)	uptake (mmol/g)
0.102056	0.00875857
0.143931	0.0110164
0.20413	0.0133505
0.253822	0.0239743
0.311404	0.0262975
0.332318	0.0326347
0.40297	0.039179
0.447445	0.0456144
0.499791	0.0479158
0.549492	0.0564562
0.609673	0.062957
0.65153	0.0693814
0.698631	0.0737443
0.748341	0.0802014
0.803296	0.0845971
0.839926	0.0889164
0.905352	0.0933556
0.949826	0.0997909
1.0074	0.104197
