Adsorption isotherm of Carbon Dioxide on Zeolite EDI
DOI: 10.1021/Jp3099768
Adsorbate Carbon Dioxide: InChIKey CURLTUGMZLYLDI-UHFFFAOYSA-N
Temperature: 298 K
Tabular data in the source: 0
pressure (bar)	uptake (mmol/g)
0.0495731	0.0162162
0.101757	0.0324324
0.15395	0.0445946
0.203523	0.0608108
0.253105	0.072973
0.300076	0.0851351
0.334001	0.0932432
0.362695	0.105405
0.39662	0.113514
0.451415	0.12973
0.500988	0.145946
0.555783	0.162162
0.602763	0.17027
0.654947	0.186486
0.704529	0.198649
0.756713	0.214865
0.80109	0.218919
0.850663	0.235135
0.900245	0.247297
0.93417	0.255405
0.960253	0.267568
0.999409	0.271622
