Adsorption isotherm of Nitrogen on Zeolite GME
DOI: 10.1021/Jp3099768
Adsorbate Nitrogen: InChIKey IJGRMHOSHXDMSA-UHFFFAOYSA-N
Temperature: 298 K
Tabular data in the source: 0
pressure (bar)	uptake (mmol/g)
0.0052356	0.0170202
0.0497382	0.0251729
0.102094	0.0247262
0.151832	0.0328342
0.198953	0.0409646
0.230366	0.049229
0.267016	0.0574487
0.306283	0.0741785
0.329843	0.065445
0.361257	0.065177
0.405759	0.0818621
0.439791	0.0901042
0.465969	0.0984132
0.5	0.0981229
0.539267	0.0977878
0.565445	0.106097
0.602094	0.114317
0.638743	0.122536
0.667539	0.130823
0.701571	0.139065
0.732984	0.147329
0.769634	0.155549
0.798429	0.155304
0.835079	0.154991
0.866492	0.163255
0.903141	0.180007
0.931937	0.179762
0.963351	0.179494
1	0.196246
