Adsorption isotherm of Carbon Dioxide on Zeolite ISV
DOI: 10.1021/Jp3099768
Adsorbate Carbon Dioxide: InChIKey CURLTUGMZLYLDI-UHFFFAOYSA-N
Temperature: 298 K
Tabular data in the source: 0
pressure (bar)	uptake (mmol/g)
0.0234445	0.0249135
0.0520928	0.0581315
0.104177	0.120415
0.12501	0.145329
0.153668	0.174394
0.174492	0.20346
0.197909	0.24083
0.244798	0.290657
0.302086	0.361246
0.34116	0.402768
0.398448	0.473356
0.445328	0.527336
0.502634	0.589619
0.546912	0.639446
0.596384	0.70173
0.640653	0.755709
0.697941	0.826298
0.742237	0.86782
0.799534	0.934256
0.841201	0.984083
0.898525	1.03806
0.937581	1.08789
0.997506	1.14602
