Adsorption isotherm of Carbon Dioxide on Zeolite FAU
DOI: 10.1021/Jp3099768
Adsorbate Carbon Dioxide: InChIKey CURLTUGMZLYLDI-UHFFFAOYSA-N
Temperature: 298 K
Tabular data in the source: 0
pressure (bar)	uptake (mmol/g)
0.0364734	0.0122788
0.0703805	0.0177118
0.101659	0.0258881
0.13815	0.0354272
0.172048	0.0422301
0.203317	0.0517763
0.239818	0.0599455
0.268485	0.0681254
0.304994	0.0749247
0.338874	0.0844673
0.367533	0.0940171
0.401431	0.10082
0.443135	0.111722
0.471811	0.118532
0.500478	0.126712
0.539581	0.136247
0.599535	0.151234
0.636017	0.162142
0.664685	0.170322
0.703796	0.178488
0.805454	0.204376
0.839335	0.213919
0.860169	0.222109
0.901891	0.230271
0.925336	0.238458
0.948782	0.246646
1.00091	0.260273
