Adsorption isotherm of Nitrogen on Zeolite LTA
DOI: 10.1021/Jp3099768
Adsorbate Nitrogen: InChIKey IJGRMHOSHXDMSA-UHFFFAOYSA-N
Temperature: 298 K
Tabular data in the source: 0
pressure (bar)	uptake (mmol/g)
0.0549637	0.00231235
0.102056	0.00875857
0.149139	0.0172881
0.201467	0.0237561
0.243324	0.0301805
0.300896	0.0345871
0.347989	0.0410333
0.400325	0.045418
0.4474	0.0560308
0.504972	0.0604374
0.544202	0.0689342
0.604383	0.0754349
0.654093	0.0818921
0.701194	0.086255
0.748296	0.0906179
0.803241	0.0970968
0.850334	0.103543
0.902652	0.112094
0.960225	0.116501
1.00208	0.122925
