Adsorption isotherm of Nitrogen on Zeolite DDR
DOI: 10.1021/Jp3099768
Adsorbate Nitrogen: InChIKey IJGRMHOSHXDMSA-UHFFFAOYSA-N
Temperature: 305 K
Tabular data in the source: 0
pressure (bar)	uptake (mmol/g)
0.607046	0.102041
0.802168	0.130612
1.01897	0.155102
1.34417	0.212245
1.60434	0.253061
1.9729	0.306122
2.34146	0.355102
2.71003	0.395918
2.99187	0.428571
3.40379	0.481633
3.75068	0.514286
3.98916	0.546939
4.3794	0.587755
4.66125	0.612245
5.00813	0.640816
5.39837	0.681633
5.63686	0.710204
6.00542	0.730612
6.39566	0.771429
6.85095	0.808163
7.24119	0.844898
7.60976	0.869388
7.97832	0.902041
