Adsorption isotherm of Nitrogen on Zeolite MER
DOI: 10.1021/Jp3099768
Adsorbate Nitrogen: InChIKey IJGRMHOSHXDMSA-UHFFFAOYSA-N
Temperature: 298 K
Tabular data in the source: 0
pressure (bar)	uptake (mmol/g)
0.00523565	4.44e-05
0.0523654	0.00891835
0.104731	0.0178367
0.151852	0.018236
0.18851	0.0270213
0.196363	0.0270878
0.227786	0.0358287
0.259209	0.0445696
0.298485	0.053377
0.337761	0.0621844
0.361331	0.0708587
0.39798	0.0711693
0.432021	0.0799324
0.463435	0.0801986
0.500102	0.0974585
0.528898	0.0977025
0.560321	0.106443
0.594361	0.115206
0.602215	0.115273
0.628393	0.115495
0.665043	0.115805
0.70171	0.133065
0.730506	0.133309
0.767156	0.13362
0.801205	0.150858
0.827383	0.15108
0.864042	0.159865
0.898082	0.168628
0.932123	0.177391
0.953066	0.177568
0.997577	0.18642
