Adsorption isotherm of Nitrogen on Zeolite MWW
DOI: 10.1021/Jp3099768
Adsorbate Nitrogen: InChIKey IJGRMHOSHXDMSA-UHFFFAOYSA-N
Temperature: 298 K
Tabular data in the source: 0
pressure (bar)	uptake (mmol/g)
0.0052356	0.00617551
0.052356	0.00646499
0.102094	0.0190572
0.149215	0.0316334
0.198953	0.0442256
0.232984	0.0567214
0.26178	0.0630417
0.303665	0.063299
0.332461	0.0757626
0.353403	0.0820346
0.403141	0.0946268
0.429319	0.0947876
0.465969	0.0950128
0.5	0.107509
0.534031	0.120004
0.565445	0.120197
0.599476	0.138836
0.633508	0.139045
0.664921	0.145382
0.698953	0.157878
0.725131	0.164182
0.76178	0.164407
0.801047	0.170791
0.837696	0.183303
0.86911	0.183496
0.903141	0.189849
0.931937	0.190026
0.963351	0.208649
1.00262	0.215033
