Adsorption isotherm of Carbon Dioxide on Zeolite DDR
DOI: 10.1021/Jp3099768
Adsorbate Carbon Dioxide: InChIKey CURLTUGMZLYLDI-UHFFFAOYSA-N
Temperature: 323 K
Tabular data in the source: 0
pressure (bar)	uptake (mmol/g)
0.0986301	0.110251
0.213699	0.231552
0.29589	0.330754
0.394521	0.430017
0.493151	0.485323
0.624658	0.562728
0.805479	0.695258
1.00274	0.805871
1.36438	0.950053
1.67671	1.08306
2.00548	1.21614
2.35068	1.27235
2.69589	1.37251
3.00822	1.41761
3.30411	1.46265
3.64932	1.51886
4.01096	1.57513
4.27397	1.63104
4.73425	1.69866
5.0137	1.71067
5.42466	1.74515
5.62192	1.75686
6	1.79121
6.2137	1.80298
