Adsorption isotherm of Carbon Dioxide on Zeolite FAU
DOI: 10.1021/Jp3099768
Adsorbate Carbon Dioxide: InChIKey CURLTUGMZLYLDI-UHFFFAOYSA-N
Temperature: 298 K
Tabular data in the source: 0
pressure (bar)	uptake (mmol/g)
0.033916	0.00406313
0.0547861	0.00677427
0.099155	0.00945321
0.153968	0.0121179
0.20093	0.017533
0.263558	0.0229266
0.305298	0.0283489
0.352278	0.0310243
0.407082	0.0350588
0.456664	0.0391005
0.503626	0.0445156
0.561032	0.0499164
0.600197	0.0498627
0.644548	0.0552814
0.701954	0.0606823
0.748934	0.0633576
0.803729	0.068762
0.845487	0.0714445
0.900291	0.0754791
0.921152	0.0795601
0.957697	0.0808799
0.999446	0.0849323
