Adsorption isotherm of Nitrogen on Zeolite RHO
DOI: 10.1021/Jp3099768
Adsorbate Nitrogen: InChIKey IJGRMHOSHXDMSA-UHFFFAOYSA-N
Temperature: 298 K
Tabular data in the source: 0
pressure (bar)	uptake (mmol/g)
0.101544	0.0113982
0.14841	0.0170761
0.20307	0.0336438
0.242132	0.0338556
0.270769	0.0394347
0.304605	0.0504657
0.348858	0.0615531
0.403528	0.0726971
0.447789	0.0783609
0.502458	0.0895049
0.541503	0.100564
0.601389	0.106313
0.658663	0.117471
0.700312	0.128544
0.744573	0.134208
0.796647	0.139914
0.838287	0.156411
0.895569	0.162145
0.932019	0.167767
0.9945	0.178953
