Adsorption isotherm of Nitrogen on Zeolite ERI
DOI: 10.1021/Jp3099768
Adsorbate Nitrogen: InChIKey IJGRMHOSHXDMSA-UHFFFAOYSA-N
Temperature: 298 K
Tabular data in the source: 0
pressure (bar)	uptake (mmol/g)
0.055127	0.0040678
0.126002	0.00813559
0.165372	0.00813559
0.199502	0.0122034
0.236256	0.0162712
0.262512	0.020339
0.296632	0.020339
0.330762	0.0244068
0.364883	0.0244068
0.404271	0.0325424
0.430517	0.0325424
0.501392	0.0366102
0.532897	0.040678
0.603772	0.0447458
0.803283	0.0610169
0.903021	0.0610169
0.93715	0.0650847
0.966022	0.0650847
1.0054	0.0691525
