Adsorption isotherm of Nitrogen on Zeolite ISV
DOI: 10.1021/Jp3099768
Adsorbate Nitrogen: InChIKey IJGRMHOSHXDMSA-UHFFFAOYSA-N
Temperature: 298 K
Tabular data in the source: 0
pressure (bar)	uptake (mmol/g)
0.0104348	0.00415225
0.0522103	0.00415225
0.104412	0.0124567
0.156613	0.0207612
0.206212	0.0249135
0.229693	0.033218
0.266237	0.0373702
0.300162	0.0456747
0.336697	0.0539792
0.373242	0.0581315
0.396731	0.0622837
0.428054	0.066436
0.461987	0.0705882
0.495921	0.0747405
0.529854	0.0788927
0.558557	0.0871972
0.602934	0.0913495
0.639479	0.0955017
0.66296	0.103806
0.702115	0.107958
0.749094	0.116263
0.801305	0.120415
0.830016	0.124567
0.869163	0.132872
0.900476	0.141176
0.923975	0.141176
0.965732	0.149481
0.999666	0.153633
