Adsorption isotherm of Carbon Dioxide on Zeolite MFI
DOI: 10.1021/Jp3099768
Adsorbate Carbon Dioxide: InChIKey CURLTUGMZLYLDI-UHFFFAOYSA-N
Temperature: 298 K
Tabular data in the source: 0
pressure (bar)	uptake (mmol/g)
0.0314403	0.0122415
0.0681072	0.0203377
0.102183	0.0408157
0.149321	0.0488688
0.199104	0.069282
0.246251	0.0814588
0.298643	0.0977376
0.337936	0.109947
0.395581	0.134451
0.440092	0.138391
0.500346	0.158761
0.534413	0.175116
0.565836	0.17911
0.599885	0.187217
0.62609	0.19948
0.662747	0.203453
0.699423	0.215672
0.749206	0.236086
0.796353	0.248262
0.851344	0.256283
0.901118	0.272573
0.958745	0.28883
0.998039	0.301039
