Adsorption isotherm of Nitrogen on Zeolite MFI
DOI: 10.1021/Jp3099768
Adsorbate Nitrogen: InChIKey IJGRMHOSHXDMSA-UHFFFAOYSA-N
Temperature: 298 K
Tabular data in the source: 0
pressure (bar)	uptake (mmol/g)
0.0497476	0.00642703
0.104731	0.0128861
0.149243	0.0192811
0.201617	0.0318466
0.230422	0.0381454
0.256618	0.0505507
0.301121	0.0508232
0.329926	0.057122
0.366584	0.0634689
0.403243	0.0698158
0.439901	0.0761627
0.463471	0.0824294
0.49752	0.0948828
0.534188	0.107352
0.570837	0.107577
0.599633	0.107753
0.628438	0.114052
0.665088	0.114276
0.701773	0.13899
0.727951	0.139151
0.764601	0.139375
0.798641	0.145706
0.832682	0.152037
0.861487	0.158336
0.898154	0.170805
0.932204	0.183258
0.968844	0.17736
1.00027	0.183675
