Adsorption isotherm of Nitrogen on Zeolite FAU
DOI: 10.1021/Jp3099768
Adsorbate Nitrogen: InChIKey IJGRMHOSHXDMSA-UHFFFAOYSA-N
Temperature: 298 K
Tabular data in the source: 0
pressure (bar)	uptake (mmol/g)
0.0078534	0.0041399
0.0471204	0.00422087
0.102094	0.00845793
0.149215	0.0126788
0.204188	0.0189777
0.264398	0.0252874
0.301047	0.0294867
0.356021	0.0337238
0.400524	0.0400011
0.45288	0.0421709
0.502618	0.0463972
0.541885	0.0506018
0.599476	0.0548443
0.641361	0.0631781
0.701571	0.0674259
0.756545	0.071663
0.798429	0.0758731
0.861257	0.0821882
0.903141	0.0863982
0.939791	0.0926594
1.00262	0.0948508
