Adsorption isotherm of Carbon Dioxide on Zeolite BEA
DOI: 10.1021/Jp3099768
Adsorbate Carbon Dioxide: InChIKey CURLTUGMZLYLDI-UHFFFAOYSA-N
Temperature: 298 K
Tabular data in the source: 0
pressure (bar)	uptake (mmol/g)
0.0209877	0.0242393
0.0524829	0.0678396
0.0734706	0.0920788
0.0997301	0.135654
0.120718	0.159893
0.149595	0.203481
0.170592	0.232548
0.20206	0.261665
0.217812	0.285879
0.238818	0.319774
0.270304	0.358546
0.301799	0.402147
0.346401	0.455465
0.370016	0.484545
0.401511	0.528145
0.446122	0.586292
0.472364	0.620211
0.501232	0.658971
0.543217	0.712278
0.572085	0.751038
0.60358	0.794638
0.645547	0.838289
0.674415	0.877049
0.703274	0.910981
0.745259	0.964287
0.776745	1.00306
0.800368	1.03697
0.844962	1.08546
0.87383	1.12422
0.905307	1.15816
0.94202	1.19213
0.968261	1.22605
1.00496	1.2552
