Adsorption isotherm of Nitrogen on Zeolite MWW
DOI: 10.1021/Jp3099768
Adsorbate Nitrogen: InChIKey IJGRMHOSHXDMSA-UHFFFAOYSA-N
Temperature: 298 K
Tabular data in the source: 0
pressure (bar)	uptake (mmol/g)
0.0418848	0
0.104712	0.0162162
0.149215	0.0202703
0.170157	0.0283784
0.201571	0.0364865
0.230366	0.0364865
0.269634	0.0445946
0.306283	0.0527027
0.335079	0.0608108
0.353403	0.0648649
0.400524	0.072973
0.45288	0.077027
0.5	0.0891892
0.539267	0.0932432
0.599476	0.105405
0.651832	0.113514
0.704188	0.117568
0.746073	0.12973
0.801047	0.137838
0.842932	0.145946
0.903141	0.15
0.937173	0.158108
1	0.162162
