Adsorption isotherm of Nitrogen on Zeolite MER
DOI: 10.1021/Jp3099768
Adsorbate Nitrogen: InChIKey IJGRMHOSHXDMSA-UHFFFAOYSA-N
Temperature: 298 K
Tabular data in the source: 0
pressure (bar)	uptake (mmol/g)
0.039267	0.0183051
0.0994764	0.0183051
0.157068	0.0122034
0.204188	0.0183051
0.240838	0.0183051
0.259162	0.0183051
0.298429	0.0244068
0.324607	0.0244068
0.361257	0.0244068
0.397906	0.0305085
0.426702	0.0366102
0.468586	0.0305085
0.502618	0.0305085
0.528796	0.0305085
0.568063	0.0305085
0.599476	0.0366102
0.633508	0.0305085
0.662304	0.0305085
0.698953	0.0366102
0.735602	0.0366102
0.753927	0.0366102
0.798429	0.0427119
0.832461	0.0427119
0.863874	0.0488136
0.897906	0.0427119
0.929319	0.0366102
0.960733	0.0427119
1	0.0427119
