Adsorption isotherm of Carbon Dioxide on Zeolite ISV
DOI: 10.1021/Jp3099768
Adsorbate Carbon Dioxide: InChIKey CURLTUGMZLYLDI-UHFFFAOYSA-N
Temperature: 298 K
Tabular data in the source: 0
pressure (bar)	uptake (mmol/g)
0.0504202	0.00512821
0.0980392	0.0102564
0.145658	0.0153846
0.19888	0.0179487
0.246499	0.0282051
0.29972	0.0307692
0.338936	0.0384615
0.355742	0.0384615
0.397759	0.0461538
0.436975	0.0512821
0.453782	0.0512821
0.492997	0.0564103
0.551821	0.0615385
0.596639	0.0666667
0.630252	0.074359
0.655462	0.0769231
0.705882	0.0794872
0.747899	0.0871795
0.798319	0.0923077
0.851541	0.1
0.89916	0.102564
0.92437	0.110256
0.963585	0.110256
1	0.112821
