Adsorption isotherm of Carbon Dioxide on Zeolite ALPO-17
DOI: 10.1021/Jp3099768
Adsorbate Carbon Dioxide: InChIKey CURLTUGMZLYLDI-UHFFFAOYSA-N
Temperature: 293 K
Tabular data in the source: 0
pressure (bar)	uptake (mmol/g)
0.0109893	0.0195652
0.0274484	0.0652174
0.052152	0.123913
0.0768555	0.182609
0.101569	0.234783
0.126283	0.286957
0.148231	0.345652
0.172955	0.391304
0.203148	0.463043
0.24985	0.547826
0.302012	0.665217
0.337745	0.717391
0.403681	0.834783
0.49984	1.00435
0.543818	1.06957
0.601549	1.14783
0.700513	1.28478
0.741765	1.33043
0.799497	1.4087
0.840749	1.45435
0.901256	1.51957
0.945273	1.5587
1.00302	1.62391
