Adsorption isotherm of Nitrogen on Zeolite LTL
DOI: 10.1021/Jp3099768
Adsorbate Nitrogen: InChIKey IJGRMHOSHXDMSA-UHFFFAOYSA-N
Temperature: 298 K
Tabular data in the source: 0
pressure (bar)	uptake (mmol/g)
0.10205	0.00847396
0.16226	0.00836979
0.204136	0.0100274
0.259101	0.0116625
0.303595	0.0133156
0.363787	0.0166716
0.400428	0.0183384
0.468491	0.0182206
0.502505	0.021622
0.528683	0.0215767
0.567941	0.0232389
0.601955	0.0266402
0.635996	0.0248512
0.659547	0.0265406
0.701423	0.0281982
0.722357	0.0298921
0.76686	0.0298151
0.806127	0.0297472
0.832296	0.031432
0.866319	0.0331033
0.905577	0.0347654
0.931755	0.0347201
0.965778	0.0363914
1.00243	0.036328
