Adsorption isotherm of Nitrogen on Zeolite MOR
DOI: 10.1021/Jp3099768
Adsorbate Nitrogen: InChIKey IJGRMHOSHXDMSA-UHFFFAOYSA-N
Temperature: 298 K
Tabular data in the source: 0
pressure (bar)	uptake (mmol/g)
0.0600522	0.00914453
0.104439	0.0183629
0.143603	0.0323197
0.172324	0.0416119
0.203655	0.0414643
0.248042	0.0506826
0.284595	0.0552241
0.302872	0.0645656
0.347258	0.073784
0.399478	0.0829654
0.438642	0.0827808
0.469974	0.0873469
0.503916	0.101328
0.54047	0.101156
0.571802	0.110436
0.603133	0.115002
0.634465	0.114854
0.668407	0.119408
0.699739	0.123974
0.736292	0.137943
0.767624	0.137796
0.798956	0.151789
0.835509	0.156331
0.856397	0.156232
0.898172	0.165463
0.937337	0.165279
0.971279	0.165119
1	0.169697
