Adsorption isotherm of Nitrogen on Zeolite BEA
DOI: 10.1021/Jp3099768
Adsorbate Nitrogen: InChIKey IJGRMHOSHXDMSA-UHFFFAOYSA-N
Temperature: 298 K
Tabular data in the source: 0
pressure (bar)	uptake (mmol/g)
0.00524468	0.00485291
0.0523655	0.00508039
0.102122	0.0149758
0.146634	0.0200182
0.199018	0.0347539
0.233068	0.0445734
0.264482	0.0447251
0.30114	0.0497296
0.322092	0.0546584
0.361368	0.0596756
0.400645	0.0646928
0.432086	0.0793273
0.463499	0.079479
0.502776	0.0844962
0.531581	0.0894628
0.563004	0.0944421
0.599662	0.0994466
0.63633	0.109279
0.665144	0.119073
0.704421	0.12409
0.727981	0.124204
0.764649	0.134036
0.79868	0.134201
0.832721	0.139192
0.861535	0.148987
0.900802	0.149176
0.932243	0.163811
0.958422	0.163937
1.00293	0.16898
