Adsorption isotherm of Nitrogen on Zeolite GME
DOI: 10.1021/Jp3099768
Adsorbate Nitrogen: InChIKey IJGRMHOSHXDMSA-UHFFFAOYSA-N
Temperature: 298 K
Tabular data in the source: 0
pressure (bar)	uptake (mmol/g)
0.0447368	0.00523432
0.102632	0.0103965
0.121053	0.0102956
0.205263	0.0153136
0.255263	0.0205191
0.3	0.0257534
0.368421	0.0198991
0.405263	0.0251766
0.465789	0.024845
0.505263	0.0301081
0.557895	0.0352992
0.602632	0.0350541
0.663158	0.0402019
0.702632	0.0399856
0.752632	0.0506705
0.805263	0.0449027
0.847368	0.0501514
0.905263	0.0498342
0.957895	0.0550252
1.00526	0.0602451
