Adsorption isotherm of Nitrogen on Zeolite MTT
DOI: 10.1021/Jp3099768
Adsorbate Nitrogen: InChIKey IJGRMHOSHXDMSA-UHFFFAOYSA-N
Temperature: 298 K
Tabular data in the source: 0
pressure (bar)	uptake (mmol/g)
0.0631751	0.00654333
0.0921311	0.00982388
0.123719	0.0130955
0.16056	0.0129711
0.192139	0.0128644
0.231612	0.012731
0.260568	0.0160116
0.297419	0.0192655
0.328998	0.0191588
0.36584	0.0190343
0.400059	0.0222971
0.431637	0.0221904
0.465856	0.0254532
0.497426	0.0219682
0.534286	0.0286004
0.568487	0.0251065
0.600075	0.0283781
0.634285	0.0282626
0.668495	0.028147
0.702705	0.0280314
0.731652	0.0279336
0.7606	0.0278358
0.800082	0.0310808
0.839555	0.0309474
0.871134	0.0308408
0.900081	0.030743
0.931668	0.0340146
0.965879	0.0338991
1.00272	0.0337746
