Adsorption isotherm of Carbon Dioxide on Zeolite GIS
DOI: 10.1021/Jp3099768
Adsorbate Carbon Dioxide: InChIKey CURLTUGMZLYLDI-UHFFFAOYSA-N
Temperature: 298 K
Tabular data in the source: 0
pressure (bar)	uptake (mmol/g)
0.0208333	0.149943
0.0520833	0.436083
0.078125	0.640519
0.104167	0.804138
0.130208	1.0766
0.164062	1.32196
0.203125	1.60821
0.226562	1.7854
0.28125	2.08546
0.302083	2.20819
0.333333	2.35828
0.369792	2.49483
0.40625	2.63138
0.4375	2.72704
0.463542	2.79542
0.505208	2.89123
0.536458	2.97329
0.598958	3.1238
0.635417	3.16511
0.695312	3.26116
0.729167	3.28883
0.796875	3.34418
0.859375	3.39945
0.895833	3.45437
0.9375	3.46854
0.963542	3.4961
0.997396	3.53738
