Adsorption isotherm of Carbon Dioxide on Zeolite DDR
DOI: 10.1021/Jp3099768
Adsorbate Carbon Dioxide: InChIKey CURLTUGMZLYLDI-UHFFFAOYSA-N
Temperature: 298 K
Tabular data in the source: 0
pressure (bar)	uptake (mmol/g)
0.130435	0.262089
0.223602	0.449295
0.298137	0.617751
0.409938	0.786324
0.521739	0.898822
0.614907	1.01126
0.819876	1.19882
1.00621	1.33024
1.28571	1.42457
1.67702	1.57532
1.84472	1.65061
2.01242	1.7259
2.31056	1.7829
2.64596	1.8774
3.01863	1.91595
3.37267	1.99182
3.68944	2.01149
4.00621	2.04986
4.28571	2.06943
4.75155	2.10826
5.01242	2.14646
5.40373	2.18506
5.79503	2.20497
6.01863	2.24305
