Adsorption isotherm of Carbon Dioxide on Zeolite LTL
DOI: 10.1021/Jp3099768
Adsorbate Carbon Dioxide: InChIKey CURLTUGMZLYLDI-UHFFFAOYSA-N
Temperature: 298 K
Tabular data in the source: 0
pressure (bar)	uptake (mmol/g)
0.0182795	0.00861889
0.0417856	0.0189588
0.101842	0.0482667
0.141009	0.0672301
0.172369	0.0775565
0.198475	0.0913521
0.211527	0.09825
0.245496	0.110302
0.269011	0.118912
0.305588	0.132689
0.342129	0.153387
0.368253	0.163723
0.402194	0.180965
0.443998	0.196464
0.470112	0.208529
0.504081	0.220581
0.545875	0.23781
0.57199	0.249875
0.603341	0.261932
0.639909	0.27744
0.666033	0.287775
0.702619	0.299822
0.741777	0.320516
0.767901	0.330851
0.804478	0.344629
0.838447	0.356681
0.86717	0.370472
0.898512	0.384259
0.937716	0.396302
0.969066	0.408358
1.00303	0.42041
