Adsorption isotherm of Nitrogen on Zeolite ISV
DOI: 10.1021/Jp3099768
Adsorbate Nitrogen: InChIKey IJGRMHOSHXDMSA-UHFFFAOYSA-N
Temperature: 298 K
Tabular data in the source: 0
pressure (bar)	uptake (mmol/g)
0.047619	0.0025641
0.0980392	0.00769231
0.128852	0.00769231
0.159664	0.0102564
0.201681	0.0128205
0.226891	0.0153846
0.266106	0.0179487
0.296919	0.0230769
0.330532	0.025641
0.358543	0.025641
0.403361	0.0307692
0.428571	0.0307692
0.459384	0.0333333
0.501401	0.0358974
0.535014	0.0384615
0.563025	0.0384615
0.59944	0.0435897
0.630252	0.0435897
0.663866	0.0487179
0.70028	0.0487179
0.733894	0.0538462
0.764706	0.0538462
0.803922	0.0564103
0.837535	0.0589744
0.862745	0.0615385
0.89916	0.0615385
0.932773	0.0641026
0.963585	0.0641026
1	0.0666667
