Adsorption isotherm of Nitrogen on Zeolite RHO
DOI: 10.1021/Jp3099768
Adsorbate Nitrogen: InChIKey IJGRMHOSHXDMSA-UHFFFAOYSA-N
Temperature: 298 K
Tabular data in the source: 0
pressure (bar)	uptake (mmol/g)
0.132802	0.00614401
0.15104	0.000819202
0.200501	0.0119349
0.236942	0.02298
0.260388	0.0176835
0.304658	0.0179236
0.328087	0.0234744
0.364545	0.0236721
0.398381	0.0347031
0.42964	0.0294489
0.463476	0.0404799
0.497338	0.0352398
0.528571	0.0462567
0.565037	0.0410307
0.598874	0.0520617
0.63534	0.0468357
0.658769	0.0523865
0.700426	0.0580362
0.731667	0.0636294
0.762908	0.0692226
0.799375	0.0639966
0.83322	0.0696039
0.859261	0.0697451
0.893107	0.0753524
0.926952	0.0809597
0.955597	0.0811151
0.997263	0.0813411
