Adsorption isotherm of Carbon Dioxide on Zeolite CHA
DOI: 10.1021/Jp3099768
Adsorbate Carbon Dioxide: InChIKey CURLTUGMZLYLDI-UHFFFAOYSA-N
Temperature: 298 K
Tabular data in the source: 0
pressure (bar)	uptake (mmol/g)
0.0102564	0.0273973
0.0487179	0.109589
0.1	0.260274
0.151282	0.383562
0.202564	0.520548
0.3	0.780822
0.4	1.0137
0.5	1.21918
0.605128	1.43836
0.697436	1.64384
0.797436	1.80822
0.9	1.9863
1	2.13699
