Adsorption isotherm of Nitrogen on Zeolite DDR
DOI: 10.1021/Jp3099768
Adsorbate Nitrogen: InChIKey IJGRMHOSHXDMSA-UHFFFAOYSA-N
Temperature: 338 K
Tabular data in the source: 0
pressure (bar)	uptake (mmol/g)
0.281843	0.0204082
0.476965	0.0408163
0.607046	0.0530612
0.802168	0.0571429
0.99729	0.077551
1.27913	0.0979592
1.66938	0.118367
1.99458	0.142857
2.25474	0.163265
2.64499	0.183673
2.99187	0.204082
3.27371	0.216327
3.59892	0.232653
3.98916	0.253061
4.22764	0.269388
4.55285	0.285714
5.00813	0.310204
5.33333	0.326531
5.5935	0.338776
5.98374	0.355102
6.33062	0.371429
6.78591	0.383673
7.26287	0.408163
7.65312	0.420408
8.02168	0.432653
