Adsorption isotherm of Nitrogen on Zeolite GIS
DOI: 10.1021/Jp3099768
Adsorbate Nitrogen: InChIKey IJGRMHOSHXDMSA-UHFFFAOYSA-N
Temperature: 298 K
Tabular data in the source: 0
pressure (bar)	uptake (mmol/g)
0.0104712	0.0138433
0.0497382	0.0149082
0.0994764	0.016257
0.157068	0.0178188
0.198953	0.0460733
0.256545	0.0476351
0.298429	0.0758896
0.361257	0.0640341
0.403141	0.0787293
0.450262	0.0800071
0.502618	0.122105
0.544503	0.109681
0.599476	0.138291
0.649215	0.13964
0.706806	0.141202
0.751309	0.155968
0.803665	0.170947
0.853403	0.185855
0.903141	0.200763
0.947644	0.20197
1	0.216949
