Adsorption isotherm of Nitrogen on Zeolite LTL
DOI: 10.1021/Jp3099768
Adsorbate Nitrogen: InChIKey IJGRMHOSHXDMSA-UHFFFAOYSA-N
Temperature: 298 K
Tabular data in the source: 0
pressure (bar)	uptake (mmol/g)
0.0052356	0.00350256
0.0471204	0.00713282
0.102094	0.00732437
0.149215	0.0144572
0.201571	0.0216083
0.23822	0.021736
0.269634	0.0218454
0.295812	0.0254209
0.324607	0.0255213
0.358639	0.0291242
0.400524	0.0327544
0.426702	0.03633
0.460733	0.0364485
0.505236	0.0435722
0.531414	0.0471478
0.565445	0.0507507
0.604712	0.0508875
0.633508	0.0544722
0.664921	0.0545816
0.704188	0.0616871
0.719895	0.0652261
0.76178	0.0653721
0.806283	0.0724958
0.84555	0.0796012
0.903141	0.0798019
0.937173	0.0799205
0.960733	0.0869712
1.00262	0.0906015
