Adsorption isotherm of Carbon Dioxide on Zeolite ERI
DOI: 10.1021/Jp3099768
Adsorbate Carbon Dioxide: InChIKey CURLTUGMZLYLDI-UHFFFAOYSA-N
Temperature: 298 K
Tabular data in the source: 0
pressure (bar)	uptake (mmol/g)
0.0577606	0.00813559
0.102407	0.020339
0.141803	0.0325424
0.199573	0.0447458
0.246835	0.0528814
0.304613	0.0691525
0.344001	0.0772881
0.399155	0.0935593
0.43066	0.0976271
0.467423	0.105763
0.50157	0.117966
0.527835	0.126102
0.56983	0.126102
0.601361	0.142373
0.630242	0.146441
0.669621	0.150508
0.701143	0.162712
0.72215	0.16678
0.745781	0.170847
0.80355	0.183051
0.827181	0.187119
0.866569	0.195254
0.903341	0.207458
0.924347	0.211525
0.958486	0.219661
1.00312	0.227797
