Adsorption isotherm of Nitrogen on Zeolite MFI
DOI: 10.1021/Jp3099768
Adsorbate Nitrogen: InChIKey IJGRMHOSHXDMSA-UHFFFAOYSA-N
Temperature: 298 K
Tabular data in the source: 0
pressure (bar)	uptake (mmol/g)
0.0288135	0.0081286
0.0550003	0.0121443
0.0995205	0.0202082
0.117845	0.0201326
0.159747	0.0282072
0.196423	0.0404271
0.230445	0.0361631
0.264494	0.0442701
0.301161	0.0523663
0.31425	0.0523124
0.363997	0.0562309
0.398046	0.064338
0.424233	0.0683537
0.473998	0.0805196
0.500184	0.0845353
0.531598	0.0844058
0.573491	0.0883567
0.597069	0.0965069
0.633727	0.100479
0.665149	0.104474
0.699198	0.112581
0.720141	0.112494
0.748945	0.116499
0.801328	0.128654
0.830132	0.132659
0.864163	0.132519
0.903448	0.140604
0.919155	0.14054
0.955813	0.144512
1.00295	0.152565
