Adsorption isotherm of Nitrogen on Zeolite FER
DOI: 10.1021/Jp3099768
Adsorbate Nitrogen: InChIKey IJGRMHOSHXDMSA-UHFFFAOYSA-N
Temperature: 298 K
Tabular data in the source: 0
pressure (bar)	uptake (mmol/g)
0.104712	0.0146844
0.133508	0.0148206
0.167539	0.0197113
0.198953	0.0245896
0.225131	0.0294432
0.259162	0.0343339
0.298429	0.0392493
0.361257	0.0395465
0.400524	0.0397322
0.460733	0.0494764
0.497382	0.0496498
0.531414	0.0545405
0.562827	0.054689
0.602094	0.0643342
0.633508	0.0597531
0.657068	0.0598645
0.701571	0.0648047
0.730366	0.0649409
0.764398	0.0651019
0.801047	0.0652752
0.835079	0.0701659
0.863874	0.0750318
0.900524	0.0752052
0.934555	0.0706364
1.00262	0.0804178
