Adsorption isotherm of Nitrogen on Zeolite GIS
DOI: 10.1021/Jp3099768
Adsorbate Nitrogen: InChIKey IJGRMHOSHXDMSA-UHFFFAOYSA-N
Temperature: 298 K
Tabular data in the source: 0
pressure (bar)	uptake (mmol/g)
0.101828	0.0149909
0.154047	0.0293068
0.198433	0.0299107
0.261097	0.0307632
0.302872	0.044937
0.349869	0.0727873
0.396867	0.0598213
0.443864	0.0740662
0.501305	0.0748477
0.548303	0.0890926
0.600522	0.089803
0.663185	0.0906556
0.699739	0.104758
0.75718	0.119145
0.798956	0.133319
0.86423	0.120602
0.898172	0.134669
0.955614	0.135451
1.00261	0.13609
