Adsorption isotherm of Nitrogen on Zeolite DDR
DOI: 10.1021/Jp3099768
Adsorbate Nitrogen: InChIKey IJGRMHOSHXDMSA-UHFFFAOYSA-N
Temperature: 338 K
Tabular data in the source: 0
pressure (bar)	uptake (mmol/g)
0.325203	0.0163265
0.628726	0.0326531
0.780488	0.0571429
1.19241	0.0938776
1.49593	0.122449
1.69106	0.138776
2.01626	0.159184
2.99187	0.232653
3.33875	0.257143
3.66396	0.277551
3.98916	0.302041
4.42276	0.330612
4.79133	0.35102
5.02981	0.367347
5.33333	0.387755
5.72358	0.412245
5.98374	0.42449
6.52575	0.457143
6.98103	0.481633
7.41463	0.506122
7.71816	0.522449
8	0.538776
