Adsorption isotherm of Nitrogen on Zeolite MWW
DOI: 10.1021/Jp3099768
Adsorbate Nitrogen: InChIKey IJGRMHOSHXDMSA-UHFFFAOYSA-N
Temperature: 298 K
Tabular data in the source: 0
pressure (bar)	uptake (mmol/g)
0.0575916	0.00405405
0.0994764	0.0121622
0.13089	0.00405405
0.164921	0.00810811
0.201571	0.0162162
0.225131	0.0202703
0.267016	0.0162162
0.301047	0.0243243
0.324607	0.0243243
0.366492	0.0243243
0.405759	0.0283784
0.431937	0.0364865
0.463351	0.0364865
0.502618	0.0405405
0.528796	0.0364865
0.573298	0.0364865
0.602094	0.0364865
0.636126	0.0405405
0.667539	0.0445946
0.706806	0.0486486
0.735602	0.0486486
0.759162	0.0486486
0.803665	0.0567568
0.837696	0.0567568
0.863874	0.0567568
0.905759	0.0567568
0.931937	0.0567568
0.968586	0.0608108
1.00524	0.0648649
