Adsorption isotherm of Carbon Dioxide on Zeolite GME
DOI: 10.1021/Jp3099768
Adsorbate Carbon Dioxide: InChIKey CURLTUGMZLYLDI-UHFFFAOYSA-N
Temperature: 298 K
Tabular data in the source: 0
pressure (bar)	uptake (mmol/g)
0.0210526	0.0601586
0.0526316	0.153136
0.0763158	0.21876
0.1	0.289863
0.121053	0.344542
0.147368	0.399193
0.178947	0.464773
0.2	0.519452
0.221053	0.552213
0.242105	0.595934
0.268421	0.634146
0.302632	0.683273
0.318421	0.705105
0.336842	0.73788
0.368421	0.787022
0.402632	0.830671
0.434211	0.868854
0.468421	0.912502
0.5	0.956164
0.536842	0.999798
0.565789	1.03252
0.6	1.07068
0.642105	1.11429
0.663158	1.13061
0.7	1.16877
0.736842	1.20144
0.768421	1.22319
0.802632	1.26136
0.831579	1.27764
0.860526	1.31035
0.905263	1.34846
0.934211	1.37022
0.963158	1.40842
1.00789	1.43557
