Adsorption isotherm of Nitrogen on Zeolite MOR
DOI: 10.1021/Jp3099768
Adsorbate Nitrogen: InChIKey IJGRMHOSHXDMSA-UHFFFAOYSA-N
Temperature: 298 K
Tabular data in the source: 0
pressure (bar)	uptake (mmol/g)
0.0497382	0.0135593
0.0968586	0.0271186
0.149215	0.040678
0.196335	0.0474576
0.230366	0.0542373
0.259162	0.0677966
0.301047	0.0813559
0.332461	0.0813559
0.361257	0.0813559
0.400524	0.0949153
0.431937	0.101695
0.468586	0.108475
0.5	0.115254
0.534031	0.122034
0.565445	0.128814
0.602094	0.135593
0.625654	0.142373
0.664921	0.149153
0.701571	0.155932
0.730366	0.169492
0.769634	0.176271
0.801047	0.183051
0.824607	0.189831
0.861257	0.189831
0.897906	0.19661
0.931937	0.210169
0.960733	0.210169
1	0.216949
