Adsorption isotherm of Carbon Dioxide on Zeolite MER
DOI: 10.1021/Jp3099768
Adsorbate Carbon Dioxide: InChIKey CURLTUGMZLYLDI-UHFFFAOYSA-N
Temperature: 298 K
Tabular data in the source: 0
pressure (bar)	uptake (mmol/g)
0.026178	0.079322
0.0706806	0.195254
0.0994764	0.268475
0.151832	0.390508
0.172775	0.451525
0.201571	0.506441
0.222513	0.561356
0.272251	0.665085
0.301047	0.726102
0.316754	0.762712
0.36911	0.854237
0.400524	0.909153
0.41623	0.939661
0.442408	0.970169
0.468586	1.01898
0.5	1.06169
0.520942	1.11051
0.549738	1.15932
0.596859	1.24475
0.641361	1.29356
0.662304	1.33627
0.696335	1.36678
0.73822	1.40949
0.767016	1.4522
0.801047	1.48271
0.837696	1.53153
0.866492	1.56203
0.903141	1.60475
0.937173	1.63525
0.968586	1.67186
1.00262	1.69017
