Adsorption isotherm of Carbon Dioxide on Zeolite MFI
DOI: 10.1021/Jp3099768
Adsorbate Carbon Dioxide: InChIKey CURLTUGMZLYLDI-UHFFFAOYSA-N
Temperature: 298 K
Tabular data in the source: 0
pressure (bar)	uptake (mmol/g)
0.0262767	0.0452525
0.0735766	0.127532
0.102471	0.172773
0.131348	0.209768
0.173394	0.283821
0.202262	0.316692
0.223285	0.353718
0.249552	0.394847
0.273184	0.427739
0.299443	0.464745
0.32043	0.485277
0.346698	0.526405
0.422821	0.620937
0.449052	0.645571
0.470057	0.67435
0.504179	0.715447
0.519912	0.727753
0.548771	0.7565
0.572412	0.793516
0.603888	0.822252
0.640618	0.859214
0.672094	0.88795
0.706206	0.924923
0.7403	0.953648
0.769159	0.982395
0.800626	1.00701
0.839947	1.03159
0.868796	1.05621
0.902899	1.08906
0.939602	1.11365
0.971079	1.14239
1.00515	1.16287
