Adsorption isotherm of Carbon Dioxide on Zeolite CHA
DOI: 10.1021/Jp3099768
Adsorbate Carbon Dioxide: InChIKey CURLTUGMZLYLDI-UHFFFAOYSA-N
Temperature: 298 K
Tabular data in the source: 0
pressure (bar)	uptake (mmol/g)
0.013037	0.0095534
0.0703361	0.0857575
0.101588	0.128618
0.140663	0.176261
0.174526	0.219133
0.200556	0.261969
0.247438	0.323886
0.276105	0.352497
0.302144	0.390586
0.343821	0.442988
0.372462	0.485835
0.403731	0.519204
0.445409	0.571605
0.474059	0.609707
0.500106	0.643051
0.53396	0.69067
0.570434	0.733555
0.601703	0.766923
0.643389	0.814579
0.669437	0.847923
0.700706	0.881291
0.737171	0.928922
0.76844	0.962291
0.797099	0.995647
0.838785	1.0433
0.864824	1.08139
0.901324	1.11004
0.937789	1.15767
0.966465	1.18154
0.997734	1.2149
