Adsorption isotherm of Carbon Dioxide on Zeolite MWW
DOI: 10.1021/Jp3099768
Adsorbate Carbon Dioxide: InChIKey CURLTUGMZLYLDI-UHFFFAOYSA-N
Temperature: 298 K
Tabular data in the source: 0
pressure (bar)	uptake (mmol/g)
0.0575916	0.072973
0.10733	0.154054
0.151832	0.231081
0.201571	0.3
0.248691	0.368919
0.301047	0.441892
0.319372	0.466216
0.36911	0.522973
0.400524	0.555405
0.418848	0.57973
0.447644	0.608108
0.465969	0.636486
0.5	0.677027
0.515707	0.693243
0.541885	0.713514
0.568063	0.741892
0.602094	0.774324
0.638743	0.814865
0.672775	0.843243
0.701571	0.87973
0.73822	0.908108
0.769634	0.932432
0.801047	0.964865
0.840314	0.993243
0.86911	1.00946
0.897906	1.03378
0.942408	1.06216
0.965969	1.09054
1.00262	1.11486
