Adsorption isotherm of Nitrogen on Zeolite DDR
DOI: 10.1021/Jp3099768
Adsorbate Nitrogen: InChIKey IJGRMHOSHXDMSA-UHFFFAOYSA-N
Temperature: 303 K
Tabular data in the source: 0
pressure (bar)	uptake (mmol/g)
0.195122	0.0367347
0.433604	0.0612245
0.607046	0.0816327
0.823848	0.118367
0.99729	0.138776
1.32249	0.17551
1.6477	0.208163
1.99458	0.24898
2.23306	0.273469
2.62331	0.306122
2.99187	0.338776
3.33875	0.367347
3.66396	0.395918
4.01084	0.412245
4.33604	0.444898
4.72629	0.469388
4.98645	0.489796
5.22493	0.506122
5.5935	0.522449
5.98374	0.546939
6.33062	0.559184
6.78591	0.579592
7.13279	0.604082
7.5664	0.62449
8	0.653061
