Adsorption isotherm of Carbon Dioxide on [Cu2(H2btp)(H2O)2(bipyridine)]
DOI: 10.1039/c5dt01137j
Article source: Figure 8
Adsorbate Carbon Dioxide: InChIKey CURLTUGMZLYLDI-UHFFFAOYSA-N
Kind: experiment
Temperature: 273 K
Tabular data in the source: 0
pressure (bar)	uptake (mg/g)
0	0
0.030361	0.479042
0.036433	0.05988
0.066795	0.658683
0.072867	0.359281
0.09412	0.359281
0.100192	0.838323
0.115373	0.538922
0.13359	0.658683
0.157878	0.718563
0.166987	1.07784
0.194312	0.958084
0.200384	1.25749
0.224673	1.25749
0.227709	1.01796
0.251998	1.43713
0.264143	1.13772
0.276287	1.49701
0.29754	1.31737
0.309684	1.61677
0.327901	1.37725
0.340046	1.67665
0.364334	1.49701
0.379514	1.85629
0.397731	1.61677
0.418986	1.91617
0.434166	1.67665
0.464526	2.15569
0.467563	1.79641
0.500961	1.97605
0.519178	2.27545
0.534358	2.03593
0.573827	2.09581
0.579898	2.45509
0.604187	2.21557
0.637584	2.33533
0.646693	2.63473
0.704379	2.57485
0.719562	2.87425
0.737776	2.69461
0.777248	2.93413
0.807608	3.05389
0.850114	3.05389
0.880474	3.23353
0.913872	3.35329
0.950307	3.41317
0.983704	3.59281
1.01406	3.65269
