Adsorption isotherm of Carbon Dioxide on [Cu2(H2btp)(H2O)2(12-bis(4-pyridl)ethylene)]
DOI: 10.1039/c5dt01137j
Article source: Figure 8
Adsorbate Carbon Dioxide: InChIKey CURLTUGMZLYLDI-UHFFFAOYSA-N
Kind: experiment
Temperature: 273 K
Tabular data in the source: 0
pressure (bar)	uptake (mg/g)
0	0
0.015181	1.91617
0.018217	2.45509
0.030361	3.53293
0.042506	4.5509
0.045542	10.7784
0.048578	5.56886
0.057686	6.28743
0.078939	7.00599
0.081975	11.9162
0.103228	7.84431
0.1093	12.6347
0.121445	8.38323
0.139662	9.04192
0.14877	13.0539
0.160915	9.46108
0.182167	13.4731
0.194312	10.1796
0.209493	13.7126
0.233781	10.6587
0.239854	13.9521
0.264143	11.0778
0.29754	14.4311
0.306648	11.5569
0.330937	14.6108
0.340046	11.976
0.370409	14.7904
0.37648	12.2754
0.412911	12.6946
0.418986	15.0299
0.443275	12.9341
0.473635	15.3293
0.479706	13.1737
0.516141	13.4731
0.528287	15.5689
0.546501	13.7126
0.585973	14.0719
0.601153	15.6886
0.61937	14.3114
0.658839	14.5509
0.683128	15.9281
0.695274	14.7904
0.725634	15.0299
0.759031	15.2695
0.774211	16.1078
0.795466	15.509
0.831897	15.6287
0.865294	15.9281
0.883512	16.5269
0.901729	16.2275
0.93816	16.4072
0.971558	16.5868
1.00799	16.7665
