Adsorption isotherm of Water on [Cu2(H2btp)(H2O)2(bipyridine)]
DOI: 10.1039/c5dt01137j
Article source: Figure 7
Adsorbate Water: InChIKey XLYOFNOQVPJJNP-UHFFFAOYSA-N
Kind: experiment
Temperature: 303 K
Tabular data in the source: 0
pressure (bar)	uptake (mg/g)
0	0
0.000437	7.16418
0.000728	1.79104
0.001019	10.1493
0.001165	13.4328
0.001602	16.7164
0.001747	5.07463
0.00233	19.7015
0.002475	21.4925
0.002767	8.65672
0.002912	23.5821
0.003058	25.9701
0.003349	28.0597
0.003931	11.9403
0.004223	32.2388
0.004368	13.7313
0.005096	34.3284
0.005388	15.5224
0.00597	36.1194
0.006698	19.403
0.007135	37.3134
0.007572	21.194
0.008591	39.1045
0.008736	24.7761
0.010193	28.0597
0.011212	30.1493
0.012231	42.0896
0.012377	31.6418
0.01325	42.6866
0.013687	33.1343
0.014706	43.5821
0.014852	34.9254
0.015871	35.2239
0.016017	43.5821
0.016745	36.4179
0.017473	44.7761
0.018055	37.3134
0.019075	44.7761
0.019366	38.209
0.020676	45.3731
0.021987	40.597
0.022132	45.9701
0.023589	40.8955
0.023734	46.2687
0.025045	41.791
0.025627	46.8657
0.026501	42.3881
0.027811	47.1642
0.027957	42.9851
0.029995	44.1791
0.030141	47.4627
0.032471	44.7761
0.032907	47.7612
0.034072	45.3731
0.03582	48.6567
0.036402	46.5672
0.038732	47.4627
0.039023	48.9552
0.04077	48.0597
0.042809	48.6567
