Adsorption isotherm of Carbon Dioxide on [Cu2(H2btp)(H2O)2(13-bis(4-pyridl)propane)]
DOI: 10.1039/c5dt01137j
Article source: Figure 8
Adsorbate Carbon Dioxide: InChIKey CURLTUGMZLYLDI-UHFFFAOYSA-N
Kind: experiment
Temperature: 273 K
Tabular data in the source: 0
pressure (bar)	uptake (mg/g)
0	0
0.015181	0.11976
0.027325	1.13772
0.036433	0.359281
0.045542	0.359281
0.060722	1.55689
0.066795	0.538922
0.078939	0.658683
0.097156	1.85629
0.100192	0.838323
0.112336	0.898204
0.13359	2.15569
0.139662	1.13772
0.157878	1.31737
0.163951	2.39521
0.194312	2.51497
0.221637	2.63473
0.224673	1.73653
0.248962	2.75449
0.261107	2.03593
0.273251	2.93413
0.294504	2.27545
0.303612	3.11377
0.330937	2.39521
0.337009	3.29341
0.3613	2.63473
0.370409	3.35329
0.394697	2.81437
0.415949	3.53293
0.428095	2.99401
0.458455	3.71257
0.467563	2.99401
0.500961	3.17365
0.513103	3.89222
0.537392	3.29341
0.573827	3.41317
0.576864	4.01198
0.604187	3.59281
0.637584	3.71257
0.643659	4.2515
0.674019	3.89222
0.710454	4.01198
0.716525	4.43114
0.740814	4.13174
0.774211	4.2515
0.801537	4.5509
0.807608	4.19162
0.841006	4.37126
0.880474	4.49102
0.898692	4.8503
0.916909	4.61078
0.947269	4.67066
0.986741	4.8503
1.01406	5.02994
