Adsorption isotherm of Water on [Cu2(H2btp)(H2O)2(13-bis(4-pyridl)propane)]
DOI: 10.1039/c5dt01137j
Article source: Figure 7
Adsorbate Water: InChIKey XLYOFNOQVPJJNP-UHFFFAOYSA-N
Kind: experiment
Temperature: 303 K
Tabular data in the source: 0
pressure (bar)	uptake (mg/g)
0	0
0.000437	3.58209
0.001165	48.6567
0.001602	49.2537
0.001747	10.7463
0.00233	53.7313
0.002475	14.3284
0.003058	55.2239
0.003203	17.9104
0.003495	56.4179
0.004077	21.194
0.004223	57.9104
0.004805	59.403
0.005679	27.7612
0.00597	60.8955
0.007717	63.2836
0.008008	34.9254
0.010193	40.597
0.011212	65.6716
0.014852	46.5672
0.017473	68.6567
0.018492	52.2388
0.020094	69.8507
0.02286	58.209
0.024608	71.6418
0.028394	62.9851
0.029704	73.4328
0.034072	66.8657
0.034946	74.6269
0.039314	71.9403
0.044411	76.7164
