Adsorption isotherm of Water on [Cu2(H2btp)(H2O)2(12-bis(4-pyridl)ethylene)]
DOI: 10.1039/c5dt01137j
Article source: Figure 7
Adsorbate Water: InChIKey XLYOFNOQVPJJNP-UHFFFAOYSA-N
Kind: experiment
Temperature: 303 K
Tabular data in the source: 0
pressure (bar)	uptake (mg/g)
0	0
0.000437	2.68657
0.000874	5.97015
0.001019	60
0.001165	7.46269
0.00131	9.85075
0.001602	68.0597
0.001747	70.7463
0.002039	14.9254
0.002184	17.6119
0.002475	73.4328
0.002767	21.194
0.003349	23.5821
0.003495	77.9104
0.00364	25.9701
0.004077	27.7612
0.004368	29.2537
0.004805	30.7463
0.005388	32.5373
0.006116	35.5224
0.006407	84.7761
0.006989	38.806
0.008008	86.5672
0.008154	41.4925
0.009028	44.1791
0.010047	48.0597
0.010484	89.2537
0.011503	50.4478
0.012377	90.4478
0.012959	53.4328
0.01558	91.9403
0.015726	58.209
0.016891	61.194
0.017036	92.2388
0.018055	64.4776
0.018492	92.8358
0.019366	67.1642
0.019657	93.1343
0.020676	70.1493
0.021841	93.4328
0.023006	74.0299
0.024025	94.3284
0.025918	77.6119
0.026937	94.6269
0.028685	81.791
0.029413	95.2239
0.031597	85.3731
0.032034	95.5224
0.034509	96.1194
0.037276	96.4179
0.037567	92.8358
0.04077	96.1194
