Adsorption isotherm of Nitrogen on carboxylated mesoporous silica nanoparticles
DOI: 10.1016/j.cej.2015.09.023
Article source: Figure 3
Adsorbate Nitrogen: InChIKey IJGRMHOSHXDMSA-UHFFFAOYSA-N
Kind: experiment
Temperature: 77 K
Tabular data in the source: 0
pressure (bar)	uptake (cm3(STP)/g)
0.002027	7.376
0.010799	10.688
0.030422	13.602
0.05361	15.321
0.069217	16.268
0.091067	16.941
0.111728	17.714
0.131498	18.312
0.151861	18.885
0.171184	19.558
0.193331	20.182
0.212505	20.357
0.233131	20.978
0.252951	21.413
0.273714	21.888
0.293297	22.561
0.315476	22.68
0.33388	23.076
0.355116	23.472
0.373992	24.105
0.394754	24.461
0.413866	24.818
0.433214	25.134
0.453978	25.965
0.4771	26.48
0.496212	26.915
0.516739	27.548
0.536796	28.181
0.556615	28.696
0.575727	29.329
0.596787	29.986
0.617574	30.646
0.637051	31.556
0.657277	32.404
0.678626	33.189
0.699226	33.974
0.71758	35.198
0.737431	36.674
0.758032	37.898
0.777696	39.342
0.797548	41.193
0.818524	43.014
0.838751	45.399
0.85911	47.917
0.878696	50.763
0.89852	54.242
0.920467	58.908
0.938875	64.6
0.950521	69.81
0.960931	75.911
0.971186	83.115
0.980371	92.621
0.990684	105.767
1.00381	119.761
0.002138	7.307
0.007546	11.256
0.01764	13.648
0.041849	15.978
0.065171	17.511
0.082479	18.084
0.102757	18.819
0.123749	19.559
0.143795	20.103
0.163723	20.608
0.185359	21.225
0.205341	21.687
0.225993	22.061
0.2463	22.446
0.266422	22.949
0.2872	23.388
0.307883	23.86
0.328849	24.08
0.348784	24.598
0.36961	24.982
0.389656	25.497
0.410528	25.952
0.429514	26.407
0.450738	27.139
0.471842	28.267
0.491769	29.157
0.511932	29.849
0.532686	30.384
0.553556	31.294
0.573247	32.006
0.594352	33.054
0.615222	33.984
0.635148	35.092
0.655749	36.187
0.675774	37.694
0.697483	39.327
0.717319	41.085
0.738465	43.188
0.758112	45.449
0.778132	47.929
0.801145	51.225
0.819865	55.008
0.841075	59.517
0.861808	65.371
0.881121	72.055
0.900429	80.637
0.91902	91.039
0.937843	102.785
0.957612	113.661
0.976705	116.667
1.005	119.713
