Adsorption isotherm of Human Serum Albumin, Water on MabDirect MM 1.23g 0.1M NaCl
DOI: 10.1007/s10450-017-9861-x
Article source: Figure 3
Adsorbate Human Serum Albumin: InChIKey NIST-ISODB-A974C5751199C37EF0D4
Adsorbate Water: InChIKey XLYOFNOQVPJJNP-UHFFFAOYSA-N
Kind: experiment
Isotherm type: excess
Temperature: 293 K
Tabular data in the source: 0
pressure (bar)	Human Serum Albumin fraction	Human Serum Albumin uptake (mg/g)	Water fraction	Water uptake (mg/g)	total uptake (mg/g)
1.01325	0.1272	6.933			
1.01325	0.2772	11.5722			
1.01325	0.3283	18.9175			
1.01325	0.7772	19.2268			
1.01325	0.9087	22.3454			
1.01325	1.2598	26.6495			
