Adsorption isotherm of Human Serum Albumin, Water on MabDirect MM 1.23g 1M NaCl
DOI: 10.1007/s10450-017-9861-x
Article source: Figure 3
Adsorbate Human Serum Albumin: InChIKey NIST-ISODB-A974C5751199C37EF0D4
Adsorbate Water: InChIKey XLYOFNOQVPJJNP-UHFFFAOYSA-N
Kind: experiment
Isotherm type: excess
Temperature: 293 K
Tabular data in the source: 0
pressure (bar)	Human Serum Albumin fraction	Human Serum Albumin uptake (mg/g)	Water fraction	Water uptake (mg/g)	total uptake (mg/g)
1.01325	0.192391	3.58247			
1.01325	0.354348	5.54124			
1.01325	0.441304	6.70103			
1.01325	0.9	9.66495			
1.01325	1.06522	9.63918			
1.01325	1.44348	11.4433			
1.01325	1.74783	17.0876			
1.01325	1.85435	10.232			
