Adsorption isotherm of Human Serum Albumin, Water on MabDirect MM pH 3
DOI: 10.1007/s10450-017-9861-x
Article source: Figure 7
Adsorbate Human Serum Albumin: InChIKey NIST-ISODB-A974C5751199C37EF0D4
Adsorbate Water: InChIKey XLYOFNOQVPJJNP-UHFFFAOYSA-N
Kind: experiment
Isotherm type: excess
Temperature: 293 K
Tabular data in the source: 0
pressure (bar)	Human Serum Albumin fraction	Human Serum Albumin uptake (mg/g)	Water fraction	Water uptake (mg/g)	total uptake (mg/g)
1.01325	0.0721	12.63			
1.01325	0.1807	19.41			
1.01325	0.2538	21.63			
1.01325	0.6599	28.96			
1.01325	0.8751	28.1			
1.01325	1.3096	28.94			
1.01325	1.6234	28.72			
