Adsorption isotherm of Human Serum Albumin, Water on MabDirect MM pH 5
DOI: 10.1007/s10450-017-9861-x
Article source: Figure 4
Adsorbate Human Serum Albumin: InChIKey NIST-ISODB-A974C5751199C37EF0D4
Adsorbate Water: InChIKey XLYOFNOQVPJJNP-UHFFFAOYSA-N
Kind: experiment
Isotherm type: excess
Temperature: 293 K
Tabular data in the source: 0
pressure (bar)	Human Serum Albumin fraction	Human Serum Albumin uptake (mg/g)	Water fraction	Water uptake (mg/g)	total uptake (mg/g)
1.01325	0.1868	3.6325			
1.01325	0.3515	5.4928			
1.01325	0.4401	6.6873			
1.01325	0.8994	9.6247			
1.01325	1.0631	9.6834			
1.01325	1.4454	11.3577			
1.01325	1.8556	10.1926			
