Adsorption isotherm of Human Serum Albumin, Water on MabDirect MM 3.27g 1M NaCl
DOI: 10.1007/s10450-017-9861-x
Article source: Figure 3
Adsorbate Human Serum Albumin: InChIKey NIST-ISODB-A974C5751199C37EF0D4
Adsorbate Water: InChIKey XLYOFNOQVPJJNP-UHFFFAOYSA-N
Kind: experiment
Isotherm type: excess
Temperature: 293 K
Tabular data in the source: 0
pressure (bar)	Human Serum Albumin fraction	Human Serum Albumin uptake (mg/g)	Water fraction	Water uptake (mg/g)	total uptake (mg/g)
1.01325	0.252174	4.87113			
1.01325	0.315217	6.03093			
1.01325	0.741304	8.29897			
1.01325	0.869565	9.81959			
1.01325	1.24783	10.567			
1.01325	1.59674	10.6701			
