Adsorption isotherm of Human Serum Albumin, Water on MabDirect MM pH 5
DOI: 10.1007/s10450-017-9861-x
Article source: Figure 7
Adsorbate Human Serum Albumin: InChIKey NIST-ISODB-A974C5751199C37EF0D4
Adsorbate Water: InChIKey XLYOFNOQVPJJNP-UHFFFAOYSA-N
Kind: experiment
Isotherm type: excess
Temperature: 293 K
Tabular data in the source: 0
pressure (bar)	Human Serum Albumin fraction	Human Serum Albumin uptake (mg/g)	Water fraction	Water uptake (mg/g)	total uptake (mg/g)
1.01325	0.0751	10.82			
1.01325	0.198	17.49			
1.01325	0.2782	19.03			
1.01325	0.6761	26.53			
1.01325	0.8477	27.71			
1.01325	1.201	30.55			
1.01325	1.5827	32.04			
