Adsorption isotherm of Human Serum Albumin, Water on MabDirect MM 1.23g 0.5M NaCl
DOI: 10.1007/s10450-017-9861-x
Article source: Figure 3
Adsorbate Human Serum Albumin: InChIKey NIST-ISODB-A974C5751199C37EF0D4
Adsorbate Water: InChIKey XLYOFNOQVPJJNP-UHFFFAOYSA-N
Kind: experiment
Isotherm type: excess
Temperature: 293 K
Tabular data in the source: 0
pressure (bar)	Human Serum Albumin fraction	Human Serum Albumin uptake (mg/g)	Water fraction	Water uptake (mg/g)	total uptake (mg/g)
1.01325	0.169565	3.65979			
1.01325	0.344565	6.70103			
1.01325	0.429348	8.42784			
1.01325	0.873913	12.8608			
1.01325	1.02717	14.0722			
1.01325	1.39456	16.4948			
