Adsorption isotherm of Human Serum Albumin, Water on MabDirect MM 0M NaCl
DOI: 10.1007/s10450-017-9861-x
Article source: Figure 3
Adsorbate Human Serum Albumin: InChIKey NIST-ISODB-A974C5751199C37EF0D4
Adsorbate Water: InChIKey XLYOFNOQVPJJNP-UHFFFAOYSA-N
Kind: experiment
Isotherm type: excess
Temperature: 293 K
Tabular data in the source: 0
pressure (bar)	Human Serum Albumin fraction	Human Serum Albumin uptake (mg/g)	Water fraction	Water uptake (mg/g)	total uptake (mg/g)
1.01325	0.0761	10.8505			
1.01325	0.1989	17.5258			
1.01325	0.2783	19.0464			
1.01325	0.6772	26.5206			
1.01325	0.8489	27.7577			
1.01325	1.2022	30.5412			
1.01325	1.5826	32.0103			
