Adsorption isotherm of Human Serum Albumin, Water on MabDirect MM 3.27g 0M NaCl
DOI: 10.1007/s10450-017-9861-x
Article source: Figure 3
Adsorbate Human Serum Albumin: InChIKey NIST-ISODB-A974C5751199C37EF0D4
Adsorbate Water: InChIKey XLYOFNOQVPJJNP-UHFFFAOYSA-N
Kind: experiment
Isotherm type: excess
Temperature: 293 K
Tabular data in the source: 0
pressure (bar)	Human Serum Albumin fraction	Human Serum Albumin uptake (mg/g)	Water fraction	Water uptake (mg/g)	total uptake (mg/g)
1.01325	0.0641	11.0052			
1.01325	0.1011	13.0412			
1.01325	0.3348	21.4433			
1.01325	0.5293	22.1649			
1.01325	0.7913	26.8299			
1.01325	1.1609	28.4278			
