Adsorption isotherm of Human Serum Albumin, Water on MabDirect MM pH 7
DOI: 10.1007/s10450-017-9861-x
Article source: Figure 7
Adsorbate Human Serum Albumin: InChIKey NIST-ISODB-A974C5751199C37EF0D4
Adsorbate Water: InChIKey XLYOFNOQVPJJNP-UHFFFAOYSA-N
Kind: experiment
Isotherm type: excess
Temperature: 293 K
Tabular data in the source: 0
pressure (bar)	Human Serum Albumin fraction	Human Serum Albumin uptake (mg/g)	Water fraction	Water uptake (mg/g)	total uptake (mg/g)
1.01325	0.1431	4.5464			
1.01325	0.3452	6.6873			
1.01325	0.4315	6.2784			
1.01325	0.8954	9.4536			
1.01325	1.1137	7.89			
1.01325	1.4944	7.5773			
1.01325	1.868	8.2027			
