Adsorption isotherm of Human Serum Albumin, Water on MabDirect MM pH 6
DOI: 10.1007/s10450-017-9861-x
Article source: Figure 7
Adsorbate Human Serum Albumin: InChIKey NIST-ISODB-A974C5751199C37EF0D4
Adsorbate Water: InChIKey XLYOFNOQVPJJNP-UHFFFAOYSA-N
Kind: experiment
Isotherm type: excess
Temperature: 293 K
Tabular data in the source: 0
pressure (bar)	Human Serum Albumin fraction	Human Serum Albumin uptake (mg/g)	Water fraction	Water uptake (mg/g)	total uptake (mg/g)
1.01325	0.1503	5.4605			
1.01325	0.3269	7.3608			
1.01325	0.4183	8.3711			
1.01325	0.8538	13.1821			
1.01325	1.0365	12.7973			
1.01325	1.4122	16.0206			
1.01325	1.7086	17.1993			
