Adsorption isotherm of Carbon Dioxide on C13H14F4N2O6Zn3
DOI: 10.1016/j.inoche.2012.07.048
Adsorbate Carbon Dioxide: InChIKey CURLTUGMZLYLDI-UHFFFAOYSA-N
Temperature: 273 K
Tabular data in the source: 0
pressure (bar)	uptake (cm3(STP)/g)
0.0251344	0.20979
0.0439488	0.27972
0.0774224	0.4662
0.108789	0.606061
0.133895	0.745921
0.156893	0.839161
0.18825	0.955711
0.21752	1.07226
0.240529	1.18881
0.267702	1.28205
0.334537	1.38695
0.409722	1.49184
0.468198	1.57343
0.537092	1.60839
0.614315	1.59674
0.67482	1.53846
0.745762	1.48019
0.810423	1.37529
0.877166	1.25874
0.943899	1.11888
0.981455	1.08392
1.02319	1.07226
