Adsorption isotherm of Nitrogen on C13H14F4N2O6Zn3
DOI: 10.1016/j.inoche.2012.07.048
Adsorbate Nitrogen: InChIKey IJGRMHOSHXDMSA-UHFFFAOYSA-N
Temperature: 77 K
Tabular data in the source: 0
pressure (bar)	uptake (cm3(STP)/g)
0.0468579	0.0642001
0.065601	0.175112
0.0968396	0.309333
0.131202	0.445161
0.190555	0.644484
0.234289	0.734503
0.293643	0.866315
0.343624	0.959549
0.390482	1.01742
0.43734	1.09217
0.484198	1.13316
0.531056	1.17416
0.584162	1.20149
0.631019	1.25936
0.677877	1.30035
0.727859	1.39359
0.774717	1.46833
0.796584	1.51334
0.824699	1.57845
0.84969	1.62506
0.87468	1.70544
0.896547	1.85171
0.924662	2.03496
0.946529	2.46815
0.952777	2.70765
0.962148	3.30319
0.965272	3.94615
