Adsorption isotherm of Hydrogen on C13H14F4N2O6Zn3
DOI: 10.1016/j.inoche.2012.07.048
Adsorbate Hydrogen: InChIKey UFHFLCQGNIYNRP-UHFFFAOYSA-N
Temperature: 77 K
Tabular data in the source: 0
pressure (bar)	uptake (cm3(STP)/g)
0.641026	0.10917
2.24359	0.152838
3.20513	0.218341
6.41026	0.283843
11.859	0.458515
17.6282	0.655022
23.3974	0.829694
29.1667	1.0262
34.9359	1.24454
41.3462	1.50655
46.7949	1.70306
52.8846	1.94323
58.9744	2.22707
64.1026	2.51092
66.0256	2.55459
68.5897	2.68559
71.7949	2.86026
74.359	2.99127
77.8846	3.18777
80.4487	3.31878
83.6538	3.51528
86.2179	3.64629
89.4231	3.84279
91.6667	3.9738
95.1923	4.19214
97.4359	4.34498
100	4.49782
