Adsorption isotherm of Nitrogen on ZnFe-LDH-4
DOI: 10.1016/j.cej.2017.06.112
Article source: Figure 3
Adsorbate Nitrogen: InChIKey IJGRMHOSHXDMSA-UHFFFAOYSA-N
Kind: experiment
Temperature: 77 K
Tabular data in the source: 0
pressure (bar)	uptake (cm3(STP)/g)
0.024084	4.01
0.05593	6.02
0.085932	6.84
0.115741	8.33
0.145135	9.74
0.174529	10.93
0.204541	11.9
0.23435	13.09
0.26497	14.57
0.293543	15.24
0.324375	16.65
0.353354	17.92
0.385818	18.96
0.413986	20.22
0.443997	21.64
0.472368	22.83
0.502582	24.31
0.532392	25.5
0.561988	26.99
0.593013	28.33
0.623228	29.52
0.655073	31.38
0.687122	32.94
0.714884	34.94
0.74592	36.21
0.774493	39.03
0.804089	40.82
0.835935	43.57
0.864508	47.36
0.891653	50.71
0.925322	56.65
0.955111	67.51
0.974484	79.48
0.992824	97.62
1.00641	139.78
0.900265	54.85
0.925991	62.77
0.959184	79.45
0.978476	89.42
