Adsorption isotherm of Nitrogen on Fe-Al-4
DOI: 10.1016/j.cej.2017.06.112
Article source: Figure 2
Adsorbate Nitrogen: InChIKey IJGRMHOSHXDMSA-UHFFFAOYSA-N
Kind: experiment
Temperature: 77 K
Tabular data in the source: 0
pressure (bar)	uptake (mmol/g)
0.006728	1.3398
0.05133	1.8981
0.08731	2.1498
0.114242	2.2916
0.122864	2.3395
0.156949	2.499
0.189768	2.6515
0.193983	2.6763
0.224066	2.8305
0.229953	2.8465
0.258992	2.9972
0.264666	3.022
0.295802	3.1762
0.301061	3.2205
0.326523	3.3606
0.331154	3.3801
0.367124	3.5946
0.372808	3.6389
0.401837	3.8232
0.407947	3.8835
0.438242	4.082
0.446652	4.3443
0.472743	4.3284
0.478001	5.1543
0.509563	4.5943
0.51314	5.6275
0.544692	4.8301
0.547641	5.6488
0.580044	5.057
0.584249	5.6666
0.614119	5.2697
0.620016	5.6826
0.651152	5.4416
0.654729	5.7004
0.685653	5.5551
0.689868	5.7111
0.720579	5.6243
0.724996	5.7324
0.757187	5.6846
0.760763	5.7449
0.794008	5.7095
0.79569	5.7556
0.826826	5.7698
0.831244	5.7787
0.849127	5.7787
0.865542	5.7876
0.884894	5.8018
0.897935	5.8071
0.922759	5.8214
0.932648	5.832
0.961687	5.8657
0.968202	5.8728
1.00208	5.9491
