Adsorption isotherm of Nitrogen on Fe-Al-4 reacted with As(III)
DOI: 10.1016/j.cej.2017.06.112
Article source: Figure 7
Adsorbate Nitrogen: InChIKey IJGRMHOSHXDMSA-UHFFFAOYSA-N
Kind: experiment
Temperature: 77 K
Tabular data in the source: 0
pressure (bar)	uptake (mmol/g)
0.003334	1.1555
0.054238	1.8787
0.056336	1.8627
0.080532	1.9993
0.087269	2.0507
0.116937	2.1943
0.121983	2.2245
0.154173	2.3628
0.163647	2.4089
0.189312	2.5189
0.194155	2.5419
0.225717	2.6856
0.230135	2.7104
0.260846	2.8523
0.265902	2.8736
0.296623	3.0279
0.300828	3.0456
0.32628	3.1786
0.330698	3.1963
0.366465	3.4127
0.372777	3.4499
0.402445	3.6184
0.407703	3.6609
0.438425	3.8436
0.445781	4.0279
0.473351	4.0634
0.480484	4.9035
0.508064	4.3081
0.514549	5.5096
0.543831	4.567
0.549272	5.5417
0.580226	4.8329
0.584411	5.5666
0.616621	5.0918
0.620401	5.5862
0.650919	5.278
0.655752	5.6005
0.686473	5.4128
0.690263	5.6166
0.722251	5.5228
0.725615	5.6256
0.757177	5.5814
0.761382	5.6541
0.7919	5.6294
0.79652	5.6648
0.827454	5.6685
0.832085	5.6897
0.850819	5.6987
0.864072	5.6987
0.885958	5.7183
0.897316	5.7148
0.922992	5.745
0.933306	5.745
0.962974	5.793
0.969914	5.7806
1.00127	5.8817
