Adsorption isotherm of Nitrogen on ZnFe-MMOs-4-300
DOI: 10.1016/j.cej.2017.06.112
Article source: Figure 3
Adsorbate Nitrogen: InChIKey IJGRMHOSHXDMSA-UHFFFAOYSA-N
Kind: experiment
Temperature: 77 K
Tabular data in the source: 0
pressure (bar)	uptake (cm3(STP)/g)
0.024297	10.87
0.050033	12.13
0.07657	13.24
0.103116	14.57
0.125995	15.38
0.151721	16.64
0.175816	17.75
0.203588	18.93
0.227065	20.12
0.250349	17.38
0.253409	21.23
0.276895	19.08
0.301801	23.08
0.302621	20.49
0.327739	24.19
0.328965	21.38
0.353263	21.67
0.355309	25.74
0.377357	23.15
0.377763	26.48
0.404107	27.07
0.405738	24.63
0.427796	28.18
0.429224	26.18
0.452914	29.73
0.454342	28.03
0.480889	30.92
0.481294	29.07
0.504984	32.84
0.505794	30.7
0.52765	32.91
0.55521	34.47
0.57972	36.32
0.607077	37.8
0.63261	40.09
0.659147	41.42
0.686109	43.34
0.711429	45.64
0.736132	48
0.761655	51.18
0.78575	54.96
0.810868	59.32
0.833331	64.5
0.837414	69.3
0.861306	86.76
0.862532	73.22
0.88683	84.17
0.88765	111.61
0.91215	127.59
0.912353	103.92
0.937066	146.89
0.937268	128.62
0.961565	151.26
0.963409	169.01
0.986481	187.28
0.989541	202.96
0.994445	215.01
1.00281	242.38
1.00629	273.3
