Adsorption isotherm of Water on C26H24Br2Cu2N8O3
DOI: 10.1039/C2ra21865h
Adsorbate Water: InChIKey XLYOFNOQVPJJNP-UHFFFAOYSA-N
Temperature: 298 K
Tabular data in the source: 0
pressure (bar)	uptake (cm3(STP)/g)
0.000886121	55.7905
0.00112779	61.7442
0.00169168	72.7104
0.00201391	77.4094
0.00290003	87.4319
0.00451116	88.3562
0.00523617	88.349
0.00725008	89.2694
0.00861954	89.8826
0.0129696	90.7797
0.017078	91.9926
0.0218308	92.8856
0.0264225	93.7802
