Adsorption isotherm of Carbon monoxide, Methane on Activated carbon: PCB
DOI: 10.1021/ie00068a032
Article source: Table II
Adsorbate Carbon monoxide: InChIKey UGFAIRIUMAVXCW-UHFFFAOYSA-N
Adsorbate Methane: InChIKey VNWKTOKETHGBQD-UHFFFAOYSA-N
Kind: experiment
Temperature: 294 K
Tabular data in the source: 0
pressure (bar)	Carbon monoxide fraction	Carbon monoxide uptake (cm3(STP)/g)	Methane fraction	Methane uptake (cm3(STP)/g)	total uptake (cm3(STP)/g)
8.61155	0.494	18.7226	0.506	57.0774	75.8
12.6174	0.356	15.8166	0.644	75.0834	90.9
16.7612	0.242	10.6496	0.758	91.7504	102.4
21.3737	0.198	10.2872	0.802	123.313	133.6
25.1176	0.304	15.1753	0.696	98.9247	114.1
26.9654	0.12	5.6352	0.88	111.765	117.4
