Adsorption isotherm of Carbon monoxide on Activated carbon: PCB
DOI: 10.1021/ie00068a032
Article source: Table I
Adsorbate Carbon monoxide: InChIKey UGFAIRIUMAVXCW-UHFFFAOYSA-N
Kind: experiment
Temperature: 294 K
Tabular data in the source: 0
pressure (bar)	uptake (cm3(STP)/g)
2.31664	24.8
8.06687	51.8
19.719	78
36.3354	97.6
54.4686	106
