Adsorption isotherm of Hydrogen sulfide on Activated carbon: PCB
DOI: 10.1021/ie00068a032
Article source: Table I
Adsorbate Hydrogen sulfide: InChIKey RWSOTUBLDIXVET-UHFFFAOYSA-N
Kind: experiment
Temperature: 293 K
Tabular data in the source: 0
pressure (bar)	uptake (cm3(STP)/g)
0.558475	59
1.59269	111
3.24743	159
6.79134	197
11.5142	208
