Adsorption isotherm of Hydrogen, Carbon monoxide on Activated carbon: PCB
DOI: 10.1021/ie00068a032
Article source: Table II
Adsorbate Hydrogen: InChIKey UFHFLCQGNIYNRP-UHFFFAOYSA-N
Adsorbate Carbon monoxide: InChIKey UGFAIRIUMAVXCW-UHFFFAOYSA-N
Kind: experiment
Temperature: 293 K
Tabular data in the source: 0
pressure (bar)	Hydrogen fraction	Hydrogen uptake (cm3(STP)/g)	Carbon monoxide fraction	Carbon monoxide uptake (cm3(STP)/g)	total uptake (cm3(STP)/g)
11.3901	0.528	5.2452	0.472	31.9548	37.2
16.1406	0.618	4.512	0.382	42.488	47
16.4854	0.47	4.9882	0.53	45.9118	50.9
17.9333	0.72	7.854	0.28	39.746	47.6
