Adsorption isotherm of Hydrogen on Activated carbon: PCB
DOI: 10.1021/ie00068a032
Article source: Table I
Adsorbate Hydrogen: InChIKey UFHFLCQGNIYNRP-UHFFFAOYSA-N
Kind: experiment
Temperature: 293 K
Tabular data in the source: 0
pressure (bar)	uptake (cm3(STP)/g)
5.86054	4.2
6.89476	8.4
20.6843	13.8
32.0606	20.4
44.678	26.2
57.7781	32.8
63.7765	36.6
