Adsorption isotherm of Carbon Dioxide on Activated carbon: PCB
DOI: 10.1021/ie00068a032
Article source: Table I
Adsorbate Carbon Dioxide: InChIKey CURLTUGMZLYLDI-UHFFFAOYSA-N
Kind: experiment
Temperature: 294 K
Tabular data in the source: 0
pressure (bar)	uptake (cm3(STP)/g)
1.11006	60.2
5.10901	130
17.2369	183
36.2664	200
