Adsorption isotherm of Methane on Activated carbon: PCB
DOI: 10.1021/ie00068a032
Article source: Table I
Adsorbate Methane: InChIKey VNWKTOKETHGBQD-UHFFFAOYSA-N
Kind: experiment
Temperature: 295 K
Tabular data in the source: 0
pressure (bar)	uptake (cm3(STP)/g)
2.7579	45.5
11.3764	91.5
24.1317	113
37.5764	121
52.4002	125
62.7423	126
66.8791	126
