Adsorption isotherm of Carbon Dioxide, Carbon monoxide on Activated carbon: PCB
DOI: 10.1021/ie00068a032
Article source: Table II
Adsorbate Carbon Dioxide: InChIKey CURLTUGMZLYLDI-UHFFFAOYSA-N
Adsorbate Carbon monoxide: InChIKey UGFAIRIUMAVXCW-UHFFFAOYSA-N
Kind: experiment
Temperature: 294 K
Tabular data in the source: 0
pressure (bar)	Carbon Dioxide fraction	Carbon Dioxide uptake (cm3(STP)/g)	Carbon monoxide fraction	Carbon monoxide uptake (cm3(STP)/g)	total uptake (cm3(STP)/g)
8.00481	0.231	69.377	0.769	20.723	90.1
10.3421	0.277	85.8214	0.723	18.0786	103.9
13.1621	0.198	80.6344	0.802	27.1656	107.8
17.8574	0.3	120.724	0.7	21.9758	142.7
18.1332	0.245	118.215	0.755	29.1852	147.4
24.373	0.537	173.449	0.463	6.8514	180.3
