Adsorption isotherm of Carbon Dioxide, Hydrogen sulfide on Activated carbon: PCB
DOI: 10.1021/ie00068a032
Article source: Table II
Adsorbate Carbon Dioxide: InChIKey CURLTUGMZLYLDI-UHFFFAOYSA-N
Adsorbate Hydrogen sulfide: InChIKey RWSOTUBLDIXVET-UHFFFAOYSA-N
Kind: experiment
Temperature: 293 K
Tabular data in the source: 0
pressure (bar)	Carbon Dioxide fraction	Carbon Dioxide uptake (cm3(STP)/g)	Hydrogen sulfide fraction	Hydrogen sulfide uptake (cm3(STP)/g)	total uptake (cm3(STP)/g)
6.89476	0.953	142.926	0.047	31.374	174.3
8.43918	0.919	128.573	0.081	66.8268	195.4
