Adsorption isotherm of Carbon Dioxide, Methane on Activated carbon: PCB
DOI: 10.1021/ie00068a032
Article source: Table II
Adsorbate Carbon Dioxide: InChIKey CURLTUGMZLYLDI-UHFFFAOYSA-N
Adsorbate Methane: InChIKey VNWKTOKETHGBQD-UHFFFAOYSA-N
Kind: experiment
Temperature: 295 K
Tabular data in the source: 0
pressure (bar)	Carbon Dioxide fraction	Carbon Dioxide uptake (cm3(STP)/g)	Methane fraction	Methane uptake (cm3(STP)/g)	total uptake (cm3(STP)/g)
8.07376	0.312	69.2838	0.688	40.5162	109.8
9.94224	0.284	68.7368	0.716	48.9632	117.7
12.5002	0.337	90.6516	0.663	43.4484	134.1
15.9338	0.403	103.452	0.597	32.8483	136.3
16.9611	0.442	127.04	0.558	31.76	158.8
22.6286	0.524	148.695	0.476	23.805	172.5
