Adsorption isotherm of Carbon Dioxide, Methane on Black Shale CH-1 Iberian Range, Spain
DOI: 10.1016/j.petrol.2017.09.038
Article source: Table 5
Adsorbate Carbon Dioxide: InChIKey CURLTUGMZLYLDI-UHFFFAOYSA-N
Adsorbate Methane: InChIKey VNWKTOKETHGBQD-UHFFFAOYSA-N
Kind: experiment
Temperature: 323 K
Tabular data in the source: 0
pressure (bar)	Carbon Dioxide fraction	Carbon Dioxide uptake (mmol/g)	Methane fraction	Methane uptake (mmol/g)	total uptake (mmol/g)
4	0.4585	0.0744	0.5415	0.063	
7.5	0.4782	0.1557	0.5218	0.0604	
10.8	0.4885	0.2104	0.5115	0.0576	
13.9	0.4936	0.25	0.5064	0.0577	
17.1	0.4971	0.2713	0.5029	0.0609	
20.8	0.499	0.2878	0.501	0.0714	
