Adsorption isotherm of Methane on Black Shale CH-1 Iberian Range, Spain
DOI: 10.1016/j.petrol.2017.09.038
Article source: Table 2
Adsorbate Methane: InChIKey VNWKTOKETHGBQD-UHFFFAOYSA-N
Kind: experiment
Temperature: 323 K
Tabular data in the source: 0
pressure (bar)	uptake (mmol/g)
3.1	0.0478
7	0.081
11.1	0.1003
15.7	0.1128
19.6	0.1191
23.3	0.123
27	0.1254
30.7	0.1266
