Adsorption isotherm of Carbon Dioxide on Black Shale CH-1 Iberian Range, Spain
DOI: 10.1016/j.petrol.2017.09.038
Article source: Table 2
Adsorbate Carbon Dioxide: InChIKey CURLTUGMZLYLDI-UHFFFAOYSA-N
Kind: experiment
Temperature: 323 K
Tabular data in the source: 0
pressure (bar)	uptake (mmol/g)
2.8	0.1812
6.6	0.2499
10.3	0.2898
14.1	0.3156
17.9	0.3338
21.9	0.348
26.1	0.3593
29.7	0.3648
