Adsorption isotherm of Nitrogen on ppy-COF
DOI: 10.1002/anie.200900881
Article source: Figure 3
Adsorbate Nitrogen: InChIKey IJGRMHOSHXDMSA-UHFFFAOYSA-N
Kind: experiment
Temperature: 77 K
Tabular data in the source: 0
pressure (bar)	uptake (cm3(STP)/g)
0.007036	135.417
0.007036	173.958
0.024628	205.208
0.035182	214.583
0.042219	220.833
0.056292	222.917
0.073883	229.167
0.102029	231.25
0.130174	234.375
0.154802	235.417
0.17943	236.458
0.214612	238.542
0.232203	240.625
0.263867	241.667
0.302568	243.75
0.320159	244.792
0.341268	245.833
0.369414	250
0.408115	250
0.474961	250
0.524216	252.083
0.569953	256.25
0.629763	258.333
0.707164	258.333
0.738828	263.542
0.791602	266.667
0.823266	268.75
0.861966	269.792
0.91474	277.083
0.928813	279.167
0.960477	289.583
0.978068	307.292
0.999177	348.958
1.01677	377.083
0.992141	330.208
0.960477	311.458
0.946404	302.083
0.91474	296.875
0.858448	290.625
0.77401	290.625
0.707164	284.375
0.657909	282.292
0.612172	280.208
0.608654	280.208
0.573471	278.125
0.538289	273.958
0.503107	270.833
0.460888	267.708
0.422188	267.708
0.365896	263.542
0.327195	258.333
0.281458	256.25
0.242758	254.167
0.21813	253.125
0.175911	251.042
0.144247	247.917
0.116102	243.75
0.087956	238.542
0.052773	232.292
0.021109	213.542
0.007036	202.083
0	189.583
0.007036	183.333
