Adsorption isotherm of Nitrogen on CuBTC
DOI: 10.1021/acs.iecr.7b03008
Article source: Figure 2
Adsorbate Nitrogen: InChIKey IJGRMHOSHXDMSA-UHFFFAOYSA-N
Kind: experiment
Temperature: 77 K
Tabular data in the source: 0
pressure (bar)	uptake (cm3(STP)/g)
0.000375	22.39
0.00077	52.91
0.001317	80.24
0.001925	132.82
0.002047	108.78
0.00232	165.64
0.00304	281.67
0.003111	228.65
0.003161	254.56
0.003232	206.37
0.003597	311.75
0.004316	339.19
0.045808	359.29
0.061128	363.14
0.073125	366.87
0.094433	371.38
0.117413	374.9
0.139562	379.19
0.153879	381.28
0.17153	383.37
0.195675	385.9
0.257604	389
0.295559	390.33
0.343333	392.76
0.373963	395.84
0.399101	394.97
0.439225	397.29
0.483503	400.27
0.51697	401.38
0.550589	402.26
0.571735	403.92
0.596205	404.69
0.622843	404.92
0.645975	405.81
0.672612	406.59
0.697082	407.47
0.72372	407.7
0.747855	407.82
0.77432	408.7
0.797797	409.15
0.82327	409.93
0.846067	410.59
0.874205	410.49
0.89834	411.6
0.923812	412.81
0.95577	413.48
0.976085	413.93
0.989237	414.48
1.00055	415.03
1.01088	416.25
