Adsorption isotherm of Methane on CuBTC
DOI: 10.1021/acs.iecr.7b03008
Article source: Figure 13
Adsorbate Methane: InChIKey VNWKTOKETHGBQD-UHFFFAOYSA-N
Kind: experiment
Temperature: 298 K
Tabular data in the source: 0
pressure (bar)	uptake (mmol/g)
1.1206	0.8421
2.818	1.9032
4.6405	2.9968
6.6018	3.7744
8.6045	4.3899
10.6072	4.9488
12.5682	5.4509
14.5708	5.9449
16.6845	6.3337
19.2431	6.6899
