Adsorption isotherm of Carbon Dioxide on CuBTC
DOI: 10.1021/acs.iecr.7b03008
Article source: Figure 13
Adsorbate Carbon Dioxide: InChIKey CURLTUGMZLYLDI-UHFFFAOYSA-N
Kind: experiment
Temperature: 298 K
Tabular data in the source: 0
pressure (bar)	uptake (mmol/g)
0.1969	0.8986
0.5735	2.1845
0.9829	3.1747
1.4034	4.2034
2.2321	5.1743
3.1267	5.9008
4.6394	6.7173
6.516	7.283
8.5801	7.7137
10.5557	7.99
12.5201	8.2021
