Adsorption isotherm of Carbon Dioxide on CID-13
DOI: 10.1246/Cl.2012.425
Adsorbate Carbon Dioxide: InChIKey CURLTUGMZLYLDI-UHFFFAOYSA-N
Temperature: 195 K
Tabular data in the source: 0
pressure (bar)	uptake (cm3(STP)/g)
0.000300766	33.6085
0.00435603	27.4314
0.00583282	36.0486
0.0151228	38.6313
0.0243451	42.6502
0.0542527	47.0942
0.0860629	51.1067
0.129187	54.6851
0.18173	58.1173
0.22868	60.402
0.30379	64.2587
0.348871	66.2567
0.401481	68.2526
0.448472	69.6755
0.501109	71.0969
0.549989	72.3757
0.598888	73.2236
0.6572	74.0689
0.709871	74.7721
0.75502	75.3338
0.811449	76.1796
0.854708	76.8855
0.911178	76.8695
0.963835	77.86
