Adsorption isotherm of Water on CID-3
DOI: 10.1246/Cl.2012.425
Adsorbate Water: InChIKey XLYOFNOQVPJJNP-UHFFFAOYSA-N
Temperature: 195 K
Tabular data in the source: 0
pressure (bar)	uptake (cm3(STP)/g)
0.00079493	1.23323
0.00158885	1.21424
0.00363217	3.4194
0.00590253	5.86957
0.00925136	9.54619
0.011467	14.5022
0.0139655	18.4496
0.015558	24.1718
0.0167545	31.1557
0.0177803	37.3923
0.01841	44.6402
0.0187004	53.1485
0.0188212	62.1617
0.0191114	70.4195
0.0195134	76.6711
0.0196907	85.4325
0.0203211	93.6822
0.0217458	102.163
0.0236795	109.13
0.0257263	115.592
0.0281698	121.795
0.0302741	129.258
