Adsorption isotherm of Carbon Dioxide on CID-3
DOI: 10.1246/Cl.2012.425
Adsorbate Carbon Dioxide: InChIKey CURLTUGMZLYLDI-UHFFFAOYSA-N
Temperature: 195 K
Tabular data in the source: 0
pressure (bar)	uptake (cm3(STP)/g)
0.00606262	31.1652
0.00964477	35.0422
0.0151566	37.9131
0.0244059	41.3575
0.0411914	44.6562
0.0580173	47.0931
0.0805038	49.2411
0.101094	51.6769
0.13113	53.392
0.157415	54.8208
0.179942	56.107
0.204345	57.5364
0.249419	59.678
0.302023	61.8175
0.358398	63.8124
0.405408	64.8044
0.461797	66.512
0.505063	67.0742
0.550158	68.785
0.599051	69.7765
0.655466	70.9096
0.706255	71.6133
0.749501	72.6065
0.802152	73.7406
0.856692	74.7305
0.911218	76.0077
0.962007	76.7115
