Adsorption isotherm of Water on CID-13
DOI: 10.1246/Cl.2012.425
Adsorbate Water: InChIKey XLYOFNOQVPJJNP-UHFFFAOYSA-N
Temperature: 195 K
Tabular data in the source: 0
pressure (bar)	uptake (cm3(STP)/g)
0.000570532	4.24396
0.000968707	5.73712
0.00273377	14.4606
0.00392849	19.1905
0.00563664	27.6648
0.00711674	34.642
0.0079698	37.6269
0.00882346	41.3632
0.00961982	44.3495
0.0104164	47.5863
0.011953	54.3116
0.0136583	59.2798
0.0144546	62.2661
0.0151929	63.5007
0.0159894	66.7375
0.0172392	69.4625
0.017865	71.952
0.0194571	77.1733
0.0212191	82.1401
0.0226403	86.3637
0.0243478	94.0868
0.0255424	98.5663
0.0271363	106.042
0.0287328	116.773
0.0303879	129.756
