Adsorption isotherm of Nitrogen on Spng-IRMOF-1
DOI: 10.1021/Ja204818q
Adsorbate Nitrogen: InChIKey IJGRMHOSHXDMSA-UHFFFAOYSA-N
Temperature: 77 K
Tabular data in the source: 0
pressure (bar)	uptake (cm3(STP)/g)
0.0171192	429.733
0.0171192	504.893
0.0673713	541.599
0.148212	559.078
0.237791	571.313
0.34485	580.053
0.43006	588.792
0.543674	592.288
0.637623	597.531
0.70317	597.531
0.792749	599.279
0.867035	601.027
0.899808	608.019
