Adsorption isotherm of Nitrogen on IRMOF-1
DOI: 10.1021/Ja204818q
Adsorbate Nitrogen: InChIKey IJGRMHOSHXDMSA-UHFFFAOYSA-N
Temperature: 77 K
Tabular data in the source: 0
pressure (bar)	uptake (cm3(STP)/g)
0.00837971	4.99371
0.00837971	130.842
0.00837971	268.926
0.00837971	382.54
0.00837971	585.296
0.0105646	485.666
0.0127495	653.464
0.0193041	714.641
0.0564469	756.59
0.113254	772.321
0.189724	793.296
0.274934	805.531
0.392918	817.767
0.478128	819.515
0.567707	816.019
0.683506	812.523
0.753422	810.775
0.814598	805.531
0.87796	800.288
