Adsorption isotherm of Carbon Dioxide on Pmg-IRMOF-1
DOI: 10.1021/Ja204818q
Adsorbate Carbon Dioxide: InChIKey CURLTUGMZLYLDI-UHFFFAOYSA-N
Temperature: 195 K
Tabular data in the source: 0
pressure (bar)	uptake (mg/g)
0.0482539	64.9212
0.103837	130.467
0.152472	191.644
0.20574	261.56
0.293746	431.98
0.358593	1607.44
0.414177	1664.25
0.472076	1703.58
0.60177	1782.23
0.703672	1834.67
0.807891	1882.74
0.858842	1913.32
0.960745	1961.39
