Adsorption isotherm of Nitrogen on Pmg-IRMOF-1
DOI: 10.1021/Ja204818q
Adsorbate Nitrogen: InChIKey IJGRMHOSHXDMSA-UHFFFAOYSA-N
Temperature: 77 K
Tabular data in the source: 0
pressure (bar)	uptake (cm3(STP)/g)
0.0171192	628.994
0.0280436	679.683
0.0498923	718.137
0.0935898	737.363
0.167876	751.347
0.235607	756.59
0.312077	761.834
0.355775	761.834
0.440985	761.834
0.537119	760.086
0.628884	753.095
0.714094	747.851
0.816783	737.363
0.862665	732.12
0.906363	730.372
