Adsorption isotherm of Carbon Dioxide on IRMOF-1
DOI: 10.1021/Ja204818q
Adsorbate Carbon Dioxide: InChIKey CURLTUGMZLYLDI-UHFFFAOYSA-N
Temperature: 195 K
Tabular data in the source: 0
pressure (bar)	uptake (mg/g)
0.045938	47.4423
0.0968892	99.8792
0.152472	165.425
0.19416	217.862
0.254375	1262.23
0.293746	1332.15
0.351646	1393.32
0.451232	1437.02
0.555451	1463.24
0.655037	1485.09
0.754624	1502.57
0.858842	1520.05
0.963061	1533.16
