Adsorption isotherm of Carbon Dioxide on Zeolite 13X
DOI: 10.1016/j.supflu.2016.01.008
Article source: Figure 2- 343
Adsorbate Carbon Dioxide: InChIKey CURLTUGMZLYLDI-UHFFFAOYSA-N
Kind: experiment
Temperature: 343 K
Tabular data in the source: 0
pressure (bar)	uptake (mmol/g)
0.1115	1.26508
0.1611	1.52202
0.2409	1.82559
0.3438	2.09165
0.4486	2.34862
0.5623	2.54079
0.7151	2.76254
0.868	2.9354
1.0796	3.12648
1.2592	3.28685
1.5491	3.50297
1.96	3.69073
2.9172	4.02082
3.9296	4.2418
4.9421	4.4787
5.9902	4.63148
7.0419	4.77745
8.6294	4.89978
10.0495	5.03226
