Adsorption isotherm of Nitrogen on Zeolite 13X
DOI: 10.1016/j.supflu.2016.01.008
Article source: Figure 1- Nitrogen
Adsorbate Nitrogen: InChIKey IJGRMHOSHXDMSA-UHFFFAOYSA-N
Kind: experiment
Temperature: 77 K
Tabular data in the source: 0
pressure (bar)	uptake (mmol/g)
0.008359	7.25717
0.028442	7.39804
0.065375	7.48265
0.081242	7.50176
0.100525	7.52735
0.119624	7.54237
0.140295	7.55432
0.159577	7.56661
0.18045	7.57413
0.200796	7.58063
0.252147	7.59294
0.303235	7.60832
0.353928	7.61211
0.40455	7.63042
0.404874	7.63056
0.456094	7.65072
0.456489	7.65076
0.505602	7.6811
0.506463	7.68315
0.557743	7.70024
0.575323	7.645
0.6087	7.70641
0.65841	7.73109
0.659068	7.73134
0.709488	7.69181
0.71041	7.69273
0.758407	7.72459
0.761498	7.80986
0.810418	7.8897
0.811208	7.88868
0.831939	7.8024
0.836225	7.95281
0.860715	7.85529
0.863542	8.04526
0.884547	8.13873
0.885925	8.0954
0.902978	8.25061
0.91305	8.03063
0.935108	8.60363
0.938462	8.17867
0.956174	8.781
0.960784	8.38844
0.976905	9.1879
0.985598	8.79398
0.989418	9.45667
0.994424	9.04467
1.00311	9.35879
1.00779	9.6221
1.00811	9.63645
