Adsorption isotherm of Carbon Dioxide on Zeolite 13X
DOI: 10.1016/j.supflu.2016.01.008
Article source: Figure 2- 283
Adsorbate Carbon Dioxide: InChIKey CURLTUGMZLYLDI-UHFFFAOYSA-N
Kind: experiment
Temperature: 283 K
Tabular data in the source: 0
pressure (bar)	uptake (mmol/g)
0.0087	1.66582
0.0228	2.09809
0.0546	2.65094
0.1612	3.26526
0.2999	3.72718
0.4529	3.95705
0.5846	4.09135
0.7662	4.22796
1.0297	4.41012
1.2291	4.49896
1.4071	4.58324
1.5994	4.64478
1.9769	4.71097
2.9527	4.88899
3.9427	5.01697
4.9221	5.15632
5.9619	5.2866
7.0197	5.36912
7.9171	5.43107
8.9179	5.52038
9.9506	5.6279
