Adsorption isotherm of Methane on Zeolite 13X
DOI: 10.1016/j.supflu.2016.01.008
Article source: Figure 3- 283
Adsorbate Methane: InChIKey VNWKTOKETHGBQD-UHFFFAOYSA-N
Kind: experiment
Temperature: 283 K
Tabular data in the source: 0
pressure (bar)	uptake (mmol/g)
0.1884	0.14493
0.3631	0.27463
0.5689	0.40739
0.7858	0.54854
0.9935	0.67595
1.2748	0.86059
1.5743	1.02768
2.0135	1.22912
2.9816	1.60607
3.9828	1.94488
5.0296	2.21581
6.0562	2.4402
7.0459	2.6295
8.0926	2.81118
9.0841	2.95318
10.026	3.07611
