Adsorption isotherm of Carbon Dioxide, Methane on Zeolite 13X
DOI: 10.1016/j.supflu.2016.01.008
Article source: Table 4- experimental
Adsorbate Carbon Dioxide: InChIKey CURLTUGMZLYLDI-UHFFFAOYSA-N
Adsorbate Methane: InChIKey VNWKTOKETHGBQD-UHFFFAOYSA-N
Kind: experiment
Temperature: 303 K
Tabular data in the source: 1
pressure (bar)	Carbon Dioxide fraction	Carbon Dioxide uptake (mmol/g)	Methane fraction	Methane uptake (mmol/g)	total uptake (mmol/g)
4.021	0.818	4.2	0.182	0.054	4.254
4.169	0.528	3.943	0.472	0.136	4.079
4.078	0.203	3.051	0.797	0.549	3.6
4.033	0.089	1.018	0.911	1.236	2.254
5.996	0.851	4.206	0.149	0.085	4.291
6.058	0.493	3.994	0.507	0.291	4.28
6.035	0.238	2.912	0.762	0.988	3.9
6.025	0.131	1.648	0.869	1.836	3.484
