Adsorption isotherm of Carbon Dioxide on Zeolite 13X
DOI: 10.1016/j.supflu.2016.01.008
Article source: Figure 2- 273
Adsorbate Carbon Dioxide: InChIKey CURLTUGMZLYLDI-UHFFFAOYSA-N
Kind: experiment
Temperature: 273 K
Tabular data in the source: 0
pressure (bar)	uptake (mmol/g)
0.0226	2.09516
0.0434	2.65117
0.0802	3.24584
0.174	3.83144
0.3321	4.23288
0.5614	4.5161
0.7696	4.67765
0.9849	4.79941
1.2109	4.89047
1.4066	4.99403
2.0046	5.14324
3.0281	5.32222
4.0018	5.43522
4.9613	5.55959
6.0365	5.6317
6.9996	5.73902
7.9787	5.82132
8.9756	5.88772
10.024	6.03487
