Adsorption isotherm of Methane on Zeolite 13X
DOI: 10.1016/j.supflu.2016.01.008
Article source: Figure 3- 273
Adsorbate Methane: InChIKey VNWKTOKETHGBQD-UHFFFAOYSA-N
Kind: experiment
Temperature: 273 K
Tabular data in the source: 0
pressure (bar)	uptake (mmol/g)
0.2025	0.20187
0.3944	0.36242
0.5748	0.51431
0.7968	0.68831
0.9968	0.83108
1.294	1.03393
1.5691	1.20458
1.9391	1.43868
2.9888	1.86991
4.0963	2.18581
5.0395	2.39739
6.0082	2.60033
6.933	2.75136
8.0358	2.93076
9.0565	3.05921
10.0089	3.1617
