Adsorption isotherm of Carbon Dioxide on Zeolite 13X
DOI: 10.1016/j.supflu.2016.01.008
Article source: Figure 2- 323
Adsorbate Carbon Dioxide: InChIKey CURLTUGMZLYLDI-UHFFFAOYSA-N
Kind: experiment
Temperature: 323 K
Tabular data in the source: 0
pressure (bar)	uptake (mmol/g)
0.0441	1.23712
0.0992	1.62001
0.1614	2.00745
0.3144	2.54941
0.5119	2.93913
0.7397	3.25044
0.9498	3.45496
1.1651	3.63902
1.3681	3.74582
1.5799	3.84694
1.9502	3.97761
2.9579	4.25484
3.9691	4.46844
4.9429	4.62751
5.8865	4.76498
6.8711	4.92292
7.95	5.02858
8.9131	5.13766
10.0134	5.21832
