Adsorption isotherm of Methane on Zeolite 13X
DOI: 10.1016/j.supflu.2016.01.008
Article source: Figure 3- 303
Adsorbate Methane: InChIKey VNWKTOKETHGBQD-UHFFFAOYSA-N
Kind: experiment
Temperature: 303 K
Tabular data in the source: 0
pressure (bar)	uptake (mmol/g)
0.1912	0.10734
0.381	0.18713
0.5801	0.27749
0.7792	0.36592
1.0199	0.46493
1.2723	0.58028
1.594	0.70237
1.9552	0.8677
2.8973	1.22338
3.9088	1.58965
4.911	1.92611
5.9847	2.16842
7.0421	2.38957
8.0717	2.55307
9.0457	2.71175
10.0498	2.84352
