Adsorption isotherm of Methane on Zeolite 13X
DOI: 10.1016/j.supflu.2016.01.008
Article source: Figure 3- 323
Adsorbate Methane: InChIKey VNWKTOKETHGBQD-UHFFFAOYSA-N
Kind: experiment
Temperature: 323 K
Tabular data in the source: 0
pressure (bar)	uptake (mmol/g)
0.189	0.08714
0.389	0.14363
0.5908	0.21157
0.7963	0.2673
1.0109	0.34057
1.3264	0.43676
1.5924	0.50928
2.0088	0.63371
3.0215	0.91539
4.0066	1.16732
5.0302	1.41467
5.9768	1.61013
7.0499	1.82162
8.1157	2.01099
9.1026	2.16982
10.0382	2.3027
