Adsorption isotherm of Methane on Zeolite 13X
DOI: 10.1016/j.supflu.2016.01.008
Article source: Figure 3- 343
Adsorbate Methane: InChIKey VNWKTOKETHGBQD-UHFFFAOYSA-N
Kind: experiment
Temperature: 343 K
Tabular data in the source: 0
pressure (bar)	uptake (mmol/g)
0.1895	0.05434
0.3913	0.10321
0.595	0.15514
0.795	0.19866
1.028	0.25288
1.2867	0.31626
1.6188	0.37965
2.0592	0.48426
3.0279	0.65687
4.0078	0.86764
5.0352	1.05171
6.0389	1.22661
7.0242	1.39388
8.0516	1.58177
9.1066	1.72692
10.0479	1.87053
