Adsorption isotherm of Carbon Dioxide, Methane on Zeolite 13X
DOI: 10.1016/j.supflu.2016.01.008
Article source: Table 5- experimental
Adsorbate Carbon Dioxide: InChIKey CURLTUGMZLYLDI-UHFFFAOYSA-N
Adsorbate Methane: InChIKey VNWKTOKETHGBQD-UHFFFAOYSA-N
Kind: experiment
Temperature: 323 K
Tabular data in the source: 1
pressure (bar)	Carbon Dioxide fraction	Carbon Dioxide uptake (mmol/g)	Methane fraction	Methane uptake (mmol/g)	total uptake (mmol/g)
4.064	0.7	3.638	0.3	0.091	3.729
4.116	0.416	2.985	0.584	0.236	3.221
4.086	0.247	1.459	0.753	0.851	2.311
4.003	0.133	0.605	0.867	1.064	1.67
6.031	0.669	3.626	0.331	0.358	3.984
6.099	0.512	2.759	0.488	1.02	3.779
6.065	0.277	1.093	0.723	1.449	2.542
