Adsorption isotherm of Carbon Dioxide on Zeolite 13X
DOI: 10.1016/j.supflu.2016.01.008
Article source: Figure 2- 303
Adsorbate Carbon Dioxide: InChIKey CURLTUGMZLYLDI-UHFFFAOYSA-N
Kind: experiment
Temperature: 303 K
Tabular data in the source: 0
pressure (bar)	uptake (mmol/g)
0.0456	1.77566
0.1064	2.26119
0.1784	2.63359
0.2526	2.92293
0.3581	3.18794
0.5085	3.45154
0.7173	3.68367
0.8721	3.83557
1.0247	3.96884
1.193	4.09783
1.4106	4.22256
1.5833	4.30715
1.9849	4.47924
2.9405	4.67312
3.9745	4.84987
4.9771	4.97074
6.0605	5.10311
6.9958	5.17096
7.9513	5.23452
9.0548	5.32824
9.9117	5.40176
