Adsorption isotherm of Water on TpPa-NO2
DOI: 10.1039/c5ta07998e
Article source: Figure 2B
Adsorbate Water: InChIKey XLYOFNOQVPJJNP-UHFFFAOYSA-N
Kind: experiment
Temperature: 298 K
Tabular data in the source: 0
pressure (bar)	uptake (cm3(STP)/g)
0.000694	1.79968
0.001899	10.8591
0.003215	31.845
0.004596	50.7755
0.006179	105.895
0.008276	162.46
0.009448	170.491
0.011047	182.022
0.012581	191.084
0.014092	200.969
0.01567	212.089
0.017291	224.854
0.018847	236.795
0.020402	250.382
0.021959	267.669
0.023515	284.134
0.025137	305.535
0.026629	333.102
0.028233	379.586
0.028145	379.174
0.024944	338.43
0.02181	310.023
0.018699	285.729
0.015676	264.314
0.01228	240.839
0.009277	209.555
0.006361	170.047
0.004776	96.8338
0.003197	65.1535
0.001596	42.5197
