Adsorption isotherm of Water on 2,3-DhaTph
DOI: 10.1039/c5ta07998e
Article source: Figure 2B
Adsorbate Water: InChIKey XLYOFNOQVPJJNP-UHFFFAOYSA-N
Kind: experiment
Temperature: 298 K
Tabular data in the source: 0
pressure (bar)	uptake (cm3(STP)/g)
0.028145	379.174
0.024944	338.43
0.02181	310.023
0.018699	285.729
0.015676	264.314
0.01228	240.839
0.009277	209.555
0.006361	170.047
0.004776	96.8338
0.003197	65.1535
0.001596	42.5197
0.000518	0.975409
0.001548	8.79933
0.003103	15.3951
0.004768	22.8145
0.006257	30.232
0.007856	40.5292
0.009478	52.8827
0.011011	63.5904
0.012501	75.5313
0.014254	85.4189
0.015612	94.0687
0.017233	103.132
0.018788	112.607
0.020431	119.615
0.021943	131.556
0.02352	138.974
0.025108	153.795
0.026697	169.849
0.028232	191.66
0.028013	190.835
0.025122	178.468
0.021837	160.34
0.01888	147.15
0.015616	125.321
0.012306	90.3332
0.009283	68.0957
0.006347	48.3265
0.004616	35.5606
0.003039	26.9085
0.001571	18.6688
