Adsorption isotherm of Water on 2,5-DhaTph
DOI: 10.1039/c5ta07998e
Article source: Figure 2A
Adsorbate Water: InChIKey XLYOFNOQVPJJNP-UHFFFAOYSA-N
Kind: experiment
Temperature: 298 K
Tabular data in the source: 0
pressure (bar)	uptake (cm3(STP)/g)
0.000205	8.92373
0.001555	5.06482
0.003306	7.63742
0.00473	7.63742
0.006171	8.28058
0.00794	10.8532
0.009419	8.92373
0.011024	12.1395
0.012465	12.1395
0.014144	11.4963
0.015731	12.1395
0.017154	17.9278
0.018868	28.2183
0.020316	68.0936
0.02196	160.064
0.023545	183.218
0.025223	195.438
0.026791	207.014
0.028304	227.595
0.028139	227.595
0.025112	211.516
0.022103	193.508
0.018716	102.824
0.015037	24.3594
0.012173	17.9278
0.009272	14.0689
0.007922	15.3552
0.006152	12.7826
0.004711	10.8532
0.00327	10.8532
0.001555	10.8532
