Adsorption isotherm of Water on TpPa-2
DOI: 10.1039/c5ta07998e
Article source: Figure 2B
Adsorbate Water: InChIKey XLYOFNOQVPJJNP-UHFFFAOYSA-N
Kind: experiment
Temperature: 298 K
Tabular data in the source: 0
pressure (bar)	uptake (cm3(STP)/g)
0.000431	-0.588139
0.000746	-0.584838
0.003164	14.7378
0.004794	23.6372
0.006214	33.0278
0.007923	52.2907
0.009398	83.8877
0.011203	131.526
0.012821	154.489
0.014189	164.372
0.015766	174.258
0.017422	183.158
0.018815	194.522
0.020498	202.928
0.022049	213.801
0.0236	223.686
0.025072	236.038
0.026782	253.327
0.028361	279.004
0.028173	280.413
0.025235	265.305
0.02204	242.312
0.018881	223.088
0.015686	200.095
0.012637	174.019
0.009495	137.32
0.006383	42.0215
0.004666	28.9817
0.003315	21.0858
