Adsorption isotherm of Water on TpPa-F4
DOI: 10.1039/c5ta07998e
Article source: Figure 2B
Adsorbate Water: InChIKey XLYOFNOQVPJJNP-UHFFFAOYSA-N
Kind: experiment
Temperature: 298 K
Tabular data in the source: 0
pressure (bar)	uptake (cm3(STP)/g)
0.000278	-0.260768
0.001569	0.986411
0.003036	4.29152
0.004722	4.72039
0.006211	6.79207
0.007809	8.86489
0.009473	10.9384
0.011049	12.1886
0.012407	15.0813
0.014224	18.8013
0.015713	27.4525
0.017159	37.3368
0.01876	62.8491
0.020364	114.474
0.021927	182.136
0.023593	204.77
0.025104	210.543
0.026681	219.195
0.028193	227.024
0.028003	225.925
0.02501	216.984
0.022017	203.931
0.018926	138.789
0.015778	49.1449
0.012436	20.1533
0.009042	12.2361
0.005959	8.4343
0.004572	6.36369
0.003003	4.29117
