Adsorption isotherm of Water on TpBD-OMe2
DOI: 10.1039/c5ta07998e
Article source: Figure 2A
Adsorbate Water: InChIKey XLYOFNOQVPJJNP-UHFFFAOYSA-N
Kind: experiment
Temperature: 298 K
Tabular data in the source: 0
pressure (bar)	uptake (cm3(STP)/g)
0.000245	3.67133
0.001643	8.49496
0.003269	18.1422
0.004607	22.4299
0.006385	25.6457
0.007799	28.8614
0.009547	35.8289
0.011067	48.1559
0.012479	66.9145
0.014162	123.726
0.016062	143.021
0.017217	150.524
0.018782	153.74
0.020393	160.707
0.02202	167.139
0.0236	178.394
0.024938	184.29
0.02664	190.721
0.028129	203.584
0.027904	201.226
0.024858	192.865
0.021684	181.288
0.01862	173.57
0.015501	161.351
0.012557	126.942
0.009251	52.0149
0.006333	39.795
0.004518	31.1124
0.003159	27.5751
0.001517	19.5357
