Adsorption isotherm of Water on DhaTab
DOI: 10.1039/c5ta07998e
Article source: Figure 2A
Adsorbate Water: InChIKey XLYOFNOQVPJJNP-UHFFFAOYSA-N
Kind: experiment
Temperature: 298 K
Tabular data in the source: 0
pressure (bar)	uptake (cm3(STP)/g)
5.9e-05	-0.72354
0.000333	1.20591
0.001592	2.49222
0.003234	5.06482
0.004748	6.35112
0.006426	8.92373
0.007977	10.8532
0.009473	14.0689
0.011042	14.7121
0.012921	19.2141
0.014252	23.0731
0.015603	23.7162
0.017281	29.5046
0.018922	35.2929
0.02029	41.7244
0.02195	51.3717
0.02359	72.5957
0.025077	190.936
0.02547	304.13
0.026043	435.333
0.026668	610.913
0.027412	661.722
0.028175	712.531
0.028008	713.277
0.025041	696.607
0.023339	616.959
0.021769	539.163
0.020516	427.101
0.018898	294.663
0.015657	74.2422
0.012481	34.4182
0.009145	27.0091
0.006177	20.5262
0.004416	17.7478
0.002788	11.2648
0.001632	7.56025
