Adsorption isotherm of Water on TpBD-Me2
DOI: 10.1039/c5ta07998e
Article source: Figure 2B
Adsorbate Water: InChIKey XLYOFNOQVPJJNP-UHFFFAOYSA-N
Kind: experiment
Temperature: 298 K
Tabular data in the source: 0
pressure (bar)	uptake (cm3(STP)/g)
0.000851	1.86986
0.00169	4.96278
0.003095	8.40431
0.006051	13.2328
0.008003	19.0788
0.011033	27.6776
0.012602	34.5477
0.014026	41.4162
0.015779	56.8552
0.017259	78.8024
0.018831	108.289
0.020566	120.987
0.02198	126.142
0.023541	134.383
0.025074	143.651
0.026717	152.235
0.028361	167.673
0.02816	169.042
0.024966	153.93
0.021772	141.218
0.018633	130.219
0.015748	106.715
0.012532	57.1639
0.0091	40.6793
0.006345	30.7127
0.004493	24.8677
0.002914	19.7109
0.001491	16.9546
