Adsorption isotherm of Water on TpBD-(NO2)2
DOI: 10.1039/c5ta07998e
Article source: Figure 2B
Adsorbate Water: InChIKey XLYOFNOQVPJJNP-UHFFFAOYSA-N
Kind: experiment
Temperature: 298 K
Tabular data in the source: 0
pressure (bar)	uptake (cm3(STP)/g)
-2.9e-05	0.55846
0.000343	1.38479
0.001569	3.0425
0.003146	6.34876
0.004722	10.0662
0.006408	13.3736
0.007875	15.4451
0.009517	17.9296
0.010897	21.2338
0.012473	24.54
0.01405	31.5472
0.015781	39.7897
0.017161	54.1968
0.018805	66.5506
0.019965	71.4973
0.020973	78.4986
0.022243	80.9792
0.023688	85.1065
0.025134	89.645
0.026667	94.5957
0.028332	106.538
0.028157	106.948
0.02693	104.056
0.025157	99.1033
0.023733	95.7986
0.021916	90.4338
0.018675	82.9979
0.017142	72.2902
0.015783	64.0516
0.014271	50.0544
0.012474	33.5868
0.009255	24.0951
0.006102	17.8938
0.004723	15.0008
0.003059	12.1049
0.001636	7.97781
