Adsorption isotherm of Water on Tp-Azo
DOI: 10.1039/c5ta07998e
Article source: Figure 2A
Adsorbate Water: InChIKey XLYOFNOQVPJJNP-UHFFFAOYSA-N
Kind: experiment
Temperature: 298 K
Tabular data in the source: 0
pressure (bar)	uptake (cm3(STP)/g)
0.000351	5.06482
0.001701	11.4963
0.003215	12.1395
0.004656	15.9984
0.006498	20.5004
0.007921	25.0025
0.009526	28.2183
0.011113	37.2224
0.012663	48.7991
0.014195	63.5916
0.015707	92.5334
0.017218	136.268
0.018737	306.06
0.020503	355.582
0.022015	380.665
0.023491	406.391
0.025113	430.831
0.026644	456.557
0.028391	508.009
0.028154	508.652
0.025147	463.632
0.021666	421.184
0.01864	386.453
0.015583	269.4
0.012623	100.251
0.009315	49.1207
0.006187	31.434
0.004473	26.2888
0.003178	21.7867
0.001536	14.7121
