Adsorption isotherm of Water on TpBD
DOI: 10.1039/c5ta07998e
Article source: Figure 2A
Adsorbate Water: InChIKey XLYOFNOQVPJJNP-UHFFFAOYSA-N
Kind: experiment
Temperature: 298 K
Tabular data in the source: 0
pressure (bar)	uptake (cm3(STP)/g)
0.000336	7.25153
0.001715	11.8822
0.003182	16.5129
0.004736	21.1436
0.006225	20.3718
0.007779	25.0025
0.00953	35.8074
0.012703	47.3842
0.014016	60.5044
0.015741	123.791
0.017272	134.595
0.018936	140.77
0.020381	144.629
0.021935	148.488
0.023533	156.205
0.024999	161.608
0.026707	166.238
0.028172	181.674
0.027975	180.131
0.025152	170.869
0.021868	161.222
0.018629	151.961
0.015608	141.541
0.012592	74.3965
0.009463	43.5253
0.007909	34.2639
0.006202	26.5461
0.004615	22.6872
0.003094	23.4589
