Adsorption isotherm of Water on TpPA-1
DOI: 10.1039/c5ta07998e
Article source: Figure 2A
Adsorbate Water: InChIKey XLYOFNOQVPJJNP-UHFFFAOYSA-N
Kind: experiment
Temperature: 298 K
Tabular data in the source: 0
pressure (bar)	uptake (cm3(STP)/g)
0.000296	7.63742
0.001554	19.8573
0.003231	35.9361
0.004634	59.7327
0.006143	126.62
0.007806	328.57
0.009628	366.516
0.01105	382.595
0.01249	396.101
0.014076	409.607
0.015699	423.113
0.017194	435.976
0.018854	449.482
0.020276	463.632
0.021898	476.495
0.023484	493.86
0.02508	508.974
0.026657	526.017
0.028187	548.528
0.028078	549.171
0.024841	526.017
0.021768	505.436
0.01876	484.212
0.015605	459.773
0.012378	428.901
0.009334	389.669
0.006339	196.081
0.004741	90.6039
0.003175	53.9443
0.001626	33.3635
