Adsorption isotherm of Carbon Dioxide on Shirasagi MSC CT-350
DOI: 10.1007/s10450-016-9821-x
Article source: Figure 1c
Adsorbate Carbon Dioxide: InChIKey CURLTUGMZLYLDI-UHFFFAOYSA-N
Kind: experiment
Temperature: 273 K
Tabular data in the source: 0
pressure (bar)	uptake (cm3(STP)/g)
0.102403	5.603
0.197517	31.091
0.296102	37.715
0.296796	34.905
0.409266	42.465
0.409613	40.726
0.523125	45.008
0.565475	47.818
0.665101	49.09
0.72203	51.164
0.807077	53.238
1.00598	58.323
1.09138	60.598
1.17677	62.07
1.30556	60.666
1.51869	65.283
1.90401	66.088
2.14596	70.438
2.54516	72.246
3.00233	71.847
3.90105	74.728
3.97221	76.2
4.37176	77.607
4.74284	77.007
5.97029	78.685
6.14142	80.693
6.32679	81.029
6.94086	79.828
7.86874	81.438
8.09681	82.576
8.85355	82.312
9.93833	82.586
10.0952	83.523
10.1667	84.326
10.5521	84.194
11.8226	84.267
13.8356	84.947
15.1057	86.425
15.8055	85.425
17.747	86.104
19.7677	86.755
20.2436	87.925
21.5693	87.135
23.5521	87.995
24.8437	89.223
25.6939	88.377
27.416	89.183
27.6652	89.131
29.2742	89.829
29.7161	90.362
29.9653	90.257
31.3476	91.273
31.744	91.541
33.2054	92.929
33.5567	93.036
