Adsorption isotherm of Methane on CarboTech D 55/1.5
DOI: 10.1007/s10450-016-9821-x
Article source: Figure 2a
Adsorbate Methane: InChIKey VNWKTOKETHGBQD-UHFFFAOYSA-N
Kind: experiment
Temperature: 313 K
Tabular data in the source: 0
pressure (bar)	uptake (mmol/g)
0.0644	0.0793
0.3106	0.3429
0.4726	0.477
0.6119	0.6135
0.7124	0.673
0.881	0.7454
0.9977	0.8049
1.0333	0.8247
1.9023	1.1936
2.1844	1.3266
3.0666	1.5124
3.9293	1.7169
4.3251	1.7859
4.8603	1.8654
5.9692	2.0271
6.1572	2.0668
7.0483	2.1451
8.0415	2.2661
8.1477	2.2955
8.8671	2.337
9.8031	2.4153
10.0157	2.4492
11.0212	2.5011
11.896	2.5618
12.1257	2.5851
12.888	2.6151
13.8562	2.6804
13.9849	2.7045
14.9995	2.7272
15.8493	2.7609
16.0656	2.7851
17.039	2.8115
17.7821	2.8488
18.1974	2.8817
18.8463	2.8843
19.9365	2.9129
