Adsorption isotherm of Carbon Dioxide on Shirasagi MSC CT-350
DOI: 10.1007/s10450-016-9821-x
Article source: Figure 2
Adsorbate Carbon Dioxide: InChIKey CURLTUGMZLYLDI-UHFFFAOYSA-N
Kind: experiment
Temperature: 293 K
Tabular data in the source: 0
pressure (bar)	uptake (mmol/g)
0.123648	0.13363
0.123648	0.267261
0.123648	0.389755
0.15456	0.501114
0.15456	0.579065
0.15456	0.634744
0.123648	0.790646
0.185471	0.957684
0.216383	1.01336
0.185471	1.03563
0.340031	1.32517
0.525502	1.58129
0.64915	1.78174
0.803709	1.88196
0.834621	1.94878
0.958269	2.09354
1.45286	2.38307
1.94745	2.62806
2.99845	2.91759
3.98763	3.11804
4.97682	3.25167
6.95518	3.41871
8.99536	3.5412
11.0046	3.61915
12.983	3.68597
15.0232	3.73051
17.0325	3.75278
19.0417	3.79733
20	3.79733
