Adsorption isotherm of Carbon Dioxide on CarboTech D 55/1.5
DOI: 10.1007/s10450-016-9821-x
Article source: Figure 2b
Adsorbate Carbon Dioxide: InChIKey CURLTUGMZLYLDI-UHFFFAOYSA-N
Kind: experiment
Temperature: 333 K
Tabular data in the source: 0
pressure (bar)	uptake (mmol/g)
0.0918	0.042
0.112	0.0932
0.1169	0.1443
0.1727	0.2631
0.2028	0.3983
0.2032	0.2996
0.2739	0.4933
0.3397	0.6432
0.4516	0.782
0.4665	0.8825
0.6346	1.0049
0.7108	1.1218
0.8229	1.1967
0.9042	1.2972
1.0215	1.3666
1.8829	1.8908
2.4132	2.1501
2.995	2.3326
3.8676	2.6137
4.036	2.6612
4.4495	2.7707
4.7712	2.8309
4.9039	2.8528
5.8485	3.0206
6.1497	3.0935
6.3846	3.1337
6.732	3.1518
7.8044	3.3123
8.2946	3.3815
8.7646	3.4216
9.8269	3.5454
10.1946	3.5782
11.7681	3.6727
12.1869	3.7164
13.7194	3.8182
14.0974	3.8473
15.7834	3.9015
16.1308	3.9233
17.7554	3.9958
18.1539	4.0139
19.7786	4.0462
