Adsorption isotherm of Nitrogen on Shirasagi MSC CT-350
DOI: 10.1007/s10450-016-9821-x
Article source: Figure 1
Adsorbate Nitrogen: InChIKey IJGRMHOSHXDMSA-UHFFFAOYSA-N
Kind: experiment
Temperature: 77 K
Tabular data in the source: 0
pressure (bar)	uptake (cm3(STP)/g)
0.008229	0.990371
0.025717	1.3205
0.055549	1.15543
0.080237	1.3205
0.105954	1.65062
0.131671	1.3205
0.157388	1.65062
0.182076	1.3205
0.206765	1.65062
0.23351	1.48556
0.258199	1.15543
0.283916	1.15543
0.306547	1.3205
0.333292	1.3205
0.357981	1.3205
0.383698	1.15543
0.407357	1.65062
0.435132	1.48556
0.458791	1.3205
0.484508	1.65062
0.509197	1.48556
0.536971	1.3205
0.560631	1.15543
0.588405	1.3205
0.608979	1.65062
0.637782	1.48556
0.664527	1.48556
0.687158	1.3205
0.713904	1.3205
0.736535	1.3205
0.763281	1.3205
0.787969	1.65062
0.811629	1.65062
0.837346	1.65062
0.863063	1.65062
0.886722	1.81568
0.913468	1.65062
0.939185	1.81568
0.964902	2.47593
0.985476	4.45667
0.998848	9.57359
0.250998	1.48556
0.275686	1.15543
0.299346	1.48556
0.32712	1.65062
0.35078	1.3205
0.376497	1.48556
0.401185	1.48556
0.426902	1.15543
0.451591	1.3205
0.478336	1.3205
0.503025	1.65062
0.52977	1.48556
0.552401	1.3205
0.579147	0.990371
0.603835	1.3205
0.628524	1.3205
0.655269	1.3205
0.679958	1.15543
0.705675	1.65062
0.729334	1.65062
0.755051	1.15543
0.780768	1.3205
0.806485	1.48556
0.832202	1.3205
0.856891	1.48556
0.881579	1.48556
0.907296	1.81568
0.933013	2.1458
0.963873	2.97111
0.990619	5.94223
0.99782	9.57359
