Adsorption isotherm of Methane on CarboTech D55/1.5
DOI: 10.1007/s10450-016-9821-x
Article source: Figure 2
Adsorbate Methane: InChIKey VNWKTOKETHGBQD-UHFFFAOYSA-N
Kind: experiment
Temperature: 293 K
Tabular data in the source: 0
pressure (bar)	uptake (mmol/g)
0.186625	0.134228
0.217729	0.246085
0.279938	0.369128
0.342146	0.514541
0.497667	0.615213
0.559876	0.704698
0.653188	0.805369
0.746501	0.883669
0.870918	0.928412
0.96423	1.04027
1.02644	1.08501
1.92846	1.51007
2.2395	1.64429
3.04821	1.84564
3.91913	2.03579
4.32348	2.13647
4.94557	2.23714
5.84759	2.36018
6.22084	2.41611
6.96734	2.49441
7.83826	2.58389
8.21151	2.63982
8.98911	2.69575
9.82893	2.75168
10.1711	2.78523
10.9487	2.85235
11.8196	2.88591
12.1306	2.90828
12.9393	2.96421
13.9658	3.00895
14.8367	3.04251
15.832	3.09843
16.112	3.10962
16.8896	3.13199
17.8538	3.16555
18.2271	3.18792
18.7869	3.19911
19.9067	3.23266
