Adsorption isotherm of Carbon Dioxide on KÃ¶strolith NaMSXK
DOI: 10.1007/s10450-016-9821-x
Article source: Figure 2d
Adsorbate Carbon Dioxide: InChIKey CURLTUGMZLYLDI-UHFFFAOYSA-N
Kind: experiment
Temperature: 293 K
Tabular data in the source: 0
pressure (bar)	uptake (mmol/g)
0.0091	0.0068
0.1349	2.8339
0.2208	3.3043
0.38	3.6451
0.4277	3.7496
0.5122	3.8178
0.6283	3.895
0.7972	4.0221
0.8974	4.0857
0.9766	4.1357
1.061	4.1992
1.9779	4.4805
3.0734	4.6413
3.9476	4.734
4.9616	4.8208
5.9566	4.8489
6.9915	4.9399
8.0262	4.9508
8.9018	4.9961
9.8835	5.0242
11.8999	5.0746
13.903	5.125
15.9459	5.1525
17.8295	5.1628
19.9014	5.1806
