Adsorption isotherm of Methane on Zeolite KÃ¶strolith NaMSXK
DOI: 10.1007/s10450-016-9821-x
Article source: Figure 2
Adsorbate Methane: InChIKey VNWKTOKETHGBQD-UHFFFAOYSA-N
Kind: experiment
Temperature: 293 K
Tabular data in the source: 0
pressure (bar)	uptake (mmol/g)
0.122699	0.066372
0.245399	0.146018
0.337423	0.199115
0.460123	0.265487
0.582822	0.30531
0.644172	0.358407
0.736196	0.411504
0.889571	0.504425
1.01227	0.557522
1.90184	0.942478
2.33129	1.11504
2.94479	1.28761
3.92638	1.5531
4.04908	1.59292
4.44785	1.67257
4.8773	1.73894
5.88957	1.9115
6.22699	1.9646
6.87117	2.03097
7.88344	2.15044
8.12883	2.17699
8.89571	2.23009
9.8773	2.30974
10.2147	2.33628
10.8589	2.37611
11.8405	2.4292
12.0552	2.44248
12.9448	2.49557
13.8344	2.52212
14.1411	2.54867
14.8466	2.57522
15.8896	2.61504
15.9816	2.61504
16.8405	2.65487
17.7914	2.66814
18.0675	2.66814
18.865	2.70796
19.8773	2.73451
