Adsorption isotherm of Methane on Shirasagi MSC CT-350
DOI: 10.1007/s10450-016-9821-x
Article source: Figure 2
Adsorbate Methane: InChIKey VNWKTOKETHGBQD-UHFFFAOYSA-N
Kind: experiment
Temperature: 313 K
Tabular data in the source: 0
pressure (bar)	uptake (mmol/g)
0.797527	0.522222
1.91035	0.877778
5.58269	1.44444
10.3122	1.81111
