Adsorption isotherm of Nitrogen on CarboTech D55/1.5
DOI: 10.1007/s10450-016-9821-x
Article source: Figure 1a
Adsorbate Nitrogen: InChIKey IJGRMHOSHXDMSA-UHFFFAOYSA-N
Kind: experiment
Temperature: 77 K
Tabular data in the source: 0
pressure (bar)	uptake (cm3(STP)/g)
0.004408	142.02
0.008785	144.925
0.024976	150.852
0.048128	153.525
0.071716	156.314
0.105781	157.824
0.127616	158.638
0.155126	159.451
0.179139	159.916
0.205777	160.497
0.233286	161.427
0.249295	161.705
0.257735	161.543
0.27495	162.996
0.28263	162.124
0.299197	162.628
0.307515	162.124
0.324153	163.181
0.330657	162.356
0.351875	163.734
0.355542	162.938
0.37682	163.181
0.383487	163.17
0.404542	163.181
0.408808	162.938
0.430197	163.734
0.434129	163.402
0.450989	163.734
0.456835	163.983
0.478012	164.288
0.485216	163.402
0.503667	164.841
0.511408	163.867
0.528612	165.21
0.535421	163.983
0.555645	165.026
0.561613	163.635
0.577815	164.841
0.586072	164.216
0.605537	164.841
0.6127	164.1
0.631181	165.395
0.639764	163.635
0.654749	165.579
0.663341	164.216
0.679695	165.579
0.689108	164.332
0.706039	165.579
0.714864	163.867
0.732373	166.132
0.738442	163.983
0.75663	166.132
0.762891	164.797
0.782274	165.948
0.787776	164.913
0.807919	166.132
0.816157	164.797
0.833564	166.317
0.84017	164.797
0.860587	166.317
0.867244	165.145
0.884844	166.501
0.88994	165.262
0.911188	167.055
0.917449	165.378
0.934056	166.87
0.938403	165.843
0.96039	166.501
0.968536	165.959
0.988183	166.308
0.988801	166.501
1.00266	166.686
