Adsorption isotherm of Carbon Dioxide on Zeolite KÃ¶strolith NaMSXK
DOI: 10.1007/s10450-016-9821-x
Article source: Figure 2
Adsorbate Carbon Dioxide: InChIKey CURLTUGMZLYLDI-UHFFFAOYSA-N
Kind: experiment
Temperature: 293 K
Tabular data in the source: 0
pressure (bar)	uptake (mmol/g)
0	0.576659
0	1.11213
0.031949	1.24943
0.063898	1.373
0.063898	1.52403
0.063898	1.62014
0.063898	1.94966
0.031949	2.10069
0.063898	2.26545
0.063898	2.37529
0.063898	2.4714
0.063898	2.54005
0.095847	2.64989
0.063898	2.73226
0.063898	2.80092
0.127796	3.2952
0.28754	3.65217
0.319489	3.73455
0.415335	3.84439
0.511182	3.91304
0.638978	4.00915
0.734824	4.0778
0.830671	4.13272
0.926518	4.20137
1.91693	4.46224
2.9393	4.627
3.89776	4.70938
4.92013	4.81922
5.84664	4.87414
6.96486	4.92906
7.95527	4.95652
8.84984	4.99771
9.8722	5.0389
11.7891	5.08009
13.8339	5.13501
15.8466	5.16247
17.7636	5.1762
19.8083	5.21739
