Adsorption isotherm of Carbon Dioxide on CarboTech D 55/1.5
DOI: 10.1007/s10450-016-9821-x
Article source: Figure 2b
Adsorbate Carbon Dioxide: InChIKey CURLTUGMZLYLDI-UHFFFAOYSA-N
Kind: experiment
Temperature: 293 K
Tabular data in the source: 0
pressure (bar)	uptake (mmol/g)
0.021	0.0575
0.0587	0.2785
0.0841	0.3798
0.1092	0.5456
0.1603	0.6377
0.1718	0.9692
0.2996	1.2132
0.3759	1.4389
0.5169	1.6046
0.5936	1.7381
0.6831	1.8854
0.7727	2.0189
0.8753	2.111
1.0292	2.2583
1.7735	2.8797
2.4672	3.2617
2.8916	3.3813
3.8433	3.6526
4.1134	3.7262
4.525	3.8274
4.8725	3.8687
5.8632	4.0387
6.0433	4.0847
6.3907	4.1352
6.8155	4.1627
7.7936	4.2729
8.3342	4.3325
8.8877	4.3554
9.7758	4.4471
10.252	4.4792
11.7133	4.5718
12.1833	4.5972
13.7467	4.6442
14.1246	4.6879
15.729	4.7166
16.0967	4.7457
17.7419	4.778
18.0076	4.7998
19.8044	4.8303
