Adsorption isotherm of Methane on CarboTech D55/1.5
DOI: 10.1007/s10450-016-9821-x
Article source: Figure 2
Adsorbate Methane: InChIKey VNWKTOKETHGBQD-UHFFFAOYSA-N
Kind: experiment
Temperature: 333 K
Tabular data in the source: 0
pressure (bar)	uptake (mmol/g)
0.155521	0.0783
0.248834	0.167785
0.311042	0.234899
0.466563	0.33557
0.622084	0.425056
0.777605	0.514541
0.96423	0.592841
1.02644	0.64877
2.02177	0.995526
2.27061	1.08501
2.9549	1.23043
3.95023	1.42058
4.10575	1.46532
4.26127	1.49888
4.85225	1.57718
6.00311	1.73378
6.18974	1.77852
7.02955	1.86801
8.02488	1.95749
8.1804	1.99105
8.83359	2.03579
10.0467	2.13647
10.8554	2.19239
11.9751	2.27069
12.1306	2.29307
12.846	2.32662
13.9658	2.39374
14.8056	2.42729
15.9254	2.47204
16.0498	2.48322
16.9518	2.51678
18.0093	2.57271
18.2271	2.58389
19.0047	2.60626
19.9689	2.62863
