Adsorption isotherm of Nitrogen on Zeolite KÃ¶strolith NaMSXK
DOI: 10.1007/s10450-016-9821-x
Article source: Figure 1
Adsorbate Nitrogen: InChIKey IJGRMHOSHXDMSA-UHFFFAOYSA-N
Kind: experiment
Temperature: 77 K
Tabular data in the source: 0
pressure (bar)	uptake (cm3(STP)/g)
0.005201	133.194
0.010403	135.635
0.027048	137.378
0.052015	139.819
0.079063	140.516
0.10507	141.562
0.130037	141.911
0.155004	142.608
0.178931	143.305
0.205979	143.305
0.230946	143.654
0.254873	144.003
0.28088	144.003
0.305848	144.351
0.330815	144.351
0.356822	145.397
0.38283	145.397
0.406756	145.397
0.431724	145.746
0.459812	146.095
0.483738	146.792
0.508706	147.141
0.533673	147.141
0.55864	147.141
0.582567	147.49
0.609614	148.187
0.633541	148.884
0.659549	149.582
0.684516	150.279
0.709483	150.279
0.735491	150.279
0.758377	152.022
0.785425	152.72
0.809352	154.114
0.834319	155.509
0.858246	157.252
0.881132	160.391
0.910261	165.969
0.931066	173.64
0.958114	189.331
0.981001	214.086
0.996605	245.816
0.250712	145.049
0.275679	144.7
0.299606	145.049
0.325613	145.397
0.351621	146.095
0.376588	146.095
0.401555	146.444
0.427562	147.141
0.45253	146.792
0.478537	148.884
0.503504	149.93
0.527431	150.628
0.552398	150.976
0.578406	151.674
0.602332	151.674
0.62834	152.371
0.655388	153.068
0.679314	153.068
0.704282	154.114
0.730289	154.812
0.756296	155.509
0.782304	156.904
0.810392	158.996
0.835359	161.437
0.857205	164.226
0.883213	170.851
0.913381	180.962
0.936268	192.817
0.961235	212.692
0.987243	237.448
0.995565	245.119
