Adsorption isotherm of Carbon Dioxide on CarboTech D55/1.5
DOI: 10.1007/s10450-016-9821-x
Article source: Figure 2
Adsorbate Carbon Dioxide: InChIKey CURLTUGMZLYLDI-UHFFFAOYSA-N
Kind: experiment
Temperature: 313 K
Tabular data in the source: 0
pressure (bar)	uptake (mmol/g)
0.062016	0.167038
0.093023	0.289532
0.124031	0.378619
0.124031	0.489978
0.155039	0.579065
0.27907	0.734967
0.434109	0.96882
0.434109	1.19154
0.620155	1.29176
0.682171	1.38085
0.868217	1.53675
0.930233	1.64811
0.930233	1.71492
1.76744	2.28285
2.41861	2.62806
2.85271	2.76169
3.84496	3.06236
4.03101	3.12918
4.43411	3.25167
4.71318	3.25167
4.86822	3.29621
5.86047	3.47439
6.20155	3.56347
6.4186	3.61915
6.85271	3.63029
7.87597	3.76392
8.34109	3.84187
8.8062	3.86414
9.82946	3.95323
10.2015	3.99777
11.7519	4.08686
12.155	4.14254
13.7364	4.19822
14.0775	4.2539
15.7519	4.2873
16.155	4.33185
17.7364	4.35412
18.0775	4.38753
19.7829	4.42094
