Adsorption isotherm of Carbon Dioxide on KÃ¶strolith NaMSXK
DOI: 10.1007/s10450-016-9821-x
Article source: Figure 2d
Adsorbate Carbon Dioxide: InChIKey CURLTUGMZLYLDI-UHFFFAOYSA-N
Kind: experiment
Temperature: 313 K
Tabular data in the source: 0
pressure (bar)	uptake (mmol/g)
0.0091	0.0068
0.2214	2.4716
0.3236	3.0019
0.391	3.1606
0.5085	3.294
0.6258	3.4022
0.7517	3.5356
0.9861	3.6761
1.848	4.0148
2.9351	4.2234
3.7961	4.3275
4.9747	4.4243
5.8773	4.4815
6.9889	4.553
7.8999	4.5849
8.9446	4.6312
9.9809	4.6739
11.8699	4.7045
13.8494	4.7624
15.8392	4.784
17.8818	4.8238
19.8507	4.8545
