Adsorption isotherm of Methane on Shirasagi MSC CT-350
DOI: 10.1007/s10450-016-9821-x
Article source: Figure 2
Adsorbate Methane: InChIKey VNWKTOKETHGBQD-UHFFFAOYSA-N
Kind: experiment
Temperature: 293 K
Tabular data in the source: 0
pressure (bar)	uptake (mmol/g)
0.51932	0.511111
1.24266	0.866667
2.46677	1.25556
4.19165	1.54444
6.41731	1.8
8.27203	1.93333
10.0896	2.04444
