Adsorption isotherm of Carbon Dioxide on Zeolite KÃ¶strolith NaMSXK
DOI: 10.1007/s10450-016-9821-x
Article source: Figure 2
Adsorbate Carbon Dioxide: InChIKey CURLTUGMZLYLDI-UHFFFAOYSA-N
Kind: experiment
Temperature: 333 K
Tabular data in the source: 0
pressure (bar)	uptake (mmol/g)
0	0.315789
0	0.878719
0.031949	1.05721
0.063898	1.15332
0.063898	1.2357
0.095847	1.41419
0.095847	1.59268
0.095847	1.67506
0.127796	2.10069
0.255591	2.48513
0.351438	2.64989
0.447284	2.78718
0.543131	2.89703
0.607029	3.0206
0.766773	3.10297
0.830671	3.18535
0.894569	3.254
1.78914	3.62471
2.9393	3.88558
3.73802	3.99542
4.82428	4.11899
5.84664	4.22883
6.80511	4.27002
7.89137	4.3524
8.91374	4.37986
9.8722	4.43478
11.7572	4.51716
13.8019	4.54462
15.7827	4.61327
17.7316	4.64073
19.8083	4.66819
