Adsorption isotherm of Carbon Dioxide on CarboTech D55/1.5
DOI: 10.1007/s10450-016-9821-x
Article source: Figure 2
Adsorbate Carbon Dioxide: InChIKey CURLTUGMZLYLDI-UHFFFAOYSA-N
Kind: experiment
Temperature: 293 K
Tabular data in the source: 0
pressure (bar)	uptake (mmol/g)
0.093023	0.122494
0.093023	0.18931
0.124031	0.267261
0.124031	0.378619
0.124031	0.467706
0.124031	0.579065
0.124031	0.634744
0.155039	0.979955
0.310078	1.24722
0.403101	1.43653
0.496124	1.60356
0.589147	1.73719
0.682171	1.88196
0.806202	2.02673
0.899225	2.12695
1.02326	2.23831
1.82946	2.87305
2.54264	3.26281
2.94574	3.3853
3.84496	3.67483
4.09302	3.75278
4.52713	3.84187
4.86822	3.88641
5.89147	4.06459
6.10853	4.1314
6.3876	4.15368
6.85271	4.18708
7.81395	4.30958
8.37209	4.36526
8.83721	4.38753
9.82946	4.45434
10.2326	4.51002
11.7209	4.57684
12.186	4.61025
13.7674	4.66592
14.1705	4.6882
15.814	4.74388
16.155	4.75501
17.7674	4.79955
18.0465	4.81069
19.845	4.83296
