Adsorption isotherm of Carbon Dioxide on CarboTech D55/1.5
DOI: 10.1007/s10450-016-9821-x
Article source: Figure 2
Adsorbate Carbon Dioxide: InChIKey CURLTUGMZLYLDI-UHFFFAOYSA-N
Kind: experiment
Temperature: 333 K
Tabular data in the source: 0
pressure (bar)	uptake (mmol/g)
0.124031	0.111359
0.124031	0.178174
0.155039	0.267261
0.155039	0.367483
0.186047	0.445434
0.372093	0.64588
0.403101	0.757238
0.496124	0.879733
0.589147	0.979955
0.682171	1.11359
0.775194	1.1804
0.899225	1.24722
0.96124	1.32517
1.89147	1.8931
2.41861	2.17149
2.97674	2.32739
3.90698	2.61693
4.09302	2.67261
4.43411	2.78396
4.8062	2.82851
4.89923	2.85078
5.79845	3.01782
6.13953	3.08463
6.3876	3.12918
6.7907	3.17372
7.84496	3.31849
8.27907	3.39644
8.8062	3.42984
9.89147	3.5412
10.2015	3.58575
11.814	3.68597
12.2171	3.73051
13.7674	3.80846
14.1085	3.84187
15.7829	3.91982
16.186	3.94209
17.7985	3.99777
18.2326	4.02004
19.845	4.06459
