Adsorption isotherm of Methane on Shirasagi MSC CT-350
DOI: 10.1007/s10450-016-9821-x
Article source: Figure 2e
Adsorbate Methane: InChIKey VNWKTOKETHGBQD-UHFFFAOYSA-N
Kind: experiment
Temperature: 293 K
Tabular data in the source: 0
pressure (bar)	uptake (mmol/g)
0.003	0.0013
0.4725	0.5089
1.1783	0.8549
2.4793	1.2482
4.1915	1.544
6.3977	1.7935
8.2633	1.9425
10.0736	2.0548
