Adsorption isotherm of Carbon Dioxide on Shirasagi MSC CT-350
DOI: 10.1007/s10450-016-9821-x
Article source: Figure 2f
Adsorbate Carbon Dioxide: InChIKey CURLTUGMZLYLDI-UHFFFAOYSA-N
Kind: experiment
Temperature: 333 K
Tabular data in the source: 0
pressure (bar)	uptake (mmol/g)
0.0173	0.0046
0.1222	0.2115
0.1828	0.2989
0.215	0.3688
0.2393	0.4096
0.2635	0.4388
0.3727	0.583
0.5465	0.7957
0.6881	0.9122
0.7933	1.0156
0.9674	1.1482
1.4615	1.4002
2.0165	1.6216
2.9607	1.91
3.97	2.124
4.9383	2.2937
6.9591	2.5293
8.9801	2.7003
11.0142	2.8203
12.9839	2.908
15.0052	2.9818
16.9879	3.0325
18.9706	3.0831
19.9361	3.1108
