Adsorption isotherm of Nitrogen on Shirasagi MSC CT-350
DOI: 10.1007/s10450-016-9821-x
Article source: Figure 1c
Adsorbate Nitrogen: InChIKey IJGRMHOSHXDMSA-UHFFFAOYSA-N
Kind: experiment
Temperature: 77 K
Tabular data in the source: 0
pressure (bar)	uptake (cm3(STP)/g)
0.010578	1.064
0.029759	1.173
0.055555	0.965
0.08268	0.864
0.105518	1.138
0.131771	1.042
0.157405	1.013
0.179281	1.051
0.206993	1.022
0.230327	0.825
0.251575	1.063
0.258242	1.198
0.274707	1.067
0.285751	1.036
0.299916	1.071
0.306796	1.073
0.325541	1.243
0.33388	1.211
0.349301	1.18
0.359301	1.149
0.376587	1.252
0.384713	1.186
0.401381	1.156
0.408889	1.157
0.426185	1.127
0.435557	1.095
0.453471	1.131
0.460138	1.066
0.477231	0.801
0.484729	1.07
0.501812	1.14
0.507233	1.141
0.529311	1.078
0.53765	1.012
0.551815	1.215
0.558898	1.15
0.577237	1.019
0.585991	1.087
0.60349	1.024
0.610157	1.158
0.626825	1.028
0.637656	1.029
0.656826	0.966
0.662247	0.699
0.681417	0.702
0.686838	0.703
0.706414	1.309
0.712665	1.31
0.730174	1.179
0.736841	1.18
0.756427	1.117
0.763509	0.85
0.781423	1.054
0.78809	1.323
0.806004	1.527
0.810594	1.394
0.831842	1.397
0.836847	1.331
0.855602	1.335
0.862269	1.269
0.881014	1.406
0.887681	1.273
0.906851	1.477
0.911015	1.478
0.93435	2.084
0.93894	2.085
0.963106	2.758
0.964767	2.825
0.986845	4.167
0.991841	6.041
0.9964	9.521
1.00015	9.789
