Adsorption isotherm of Methane on CarboTech D55/1.5
DOI: 10.1007/s10450-016-9821-x
Article source: Figure 2
Adsorbate Methane: InChIKey VNWKTOKETHGBQD-UHFFFAOYSA-N
Kind: experiment
Temperature: 313 K
Tabular data in the source: 0
pressure (bar)	uptake (mmol/g)
0.155521	0.100671
0.248834	0.246085
0.37325	0.346756
0.528771	0.480984
0.653188	0.592841
0.715397	0.671141
0.808709	0.738255
0.933126	0.794183
1.02644	0.82774
1.92846	1.19687
2.27061	1.35347
3.07932	1.52125
3.98134	1.72259
4.35459	1.81208
4.85225	1.86801
6.00311	2.02461
6.15863	2.08054
7.09176	2.15884
8.02488	2.24832
8.1804	2.30425
8.9269	2.34899
9.86003	2.41611
10.0156	2.44966
11.042	2.50559
11.9129	2.55034
12.1617	2.59508
12.8771	2.61745
13.8725	2.66219
13.9658	2.70693
14.9922	2.72931
15.9254	2.76286
16.0187	2.79642
16.9518	2.80761
17.8227	2.82998
18.1649	2.87472
18.8491	2.87472
19.9378	2.90828
