Adsorption isotherm of Methane on CarboTech D 55/1.5
DOI: 10.1007/s10450-016-9821-x
Article source: Figure 2a
Adsorbate Methane: InChIKey VNWKTOKETHGBQD-UHFFFAOYSA-N
Kind: experiment
Temperature: 293 K
Tabular data in the source: 0
pressure (bar)	uptake (mmol/g)
0.0672	0.0992
0.0876	0.2399
0.1337	0.3639
0.2211	0.4953
0.3857	0.625
0.4782	0.7176
0.5811	0.8138
0.684	0.8731
0.7663	0.9176
0.8847	0.9954
0.9773	1.0787
1.8831	1.5029
2.2794	1.6271
3.0414	1.8385
3.8394	2.0202
3.9063	2.0517
4.2771	2.1148
4.8949	2.2299
5.7858	2.3377
6.2132	2.4267
6.9702	2.4882
7.7306	2.592
8.1199	2.6248
8.9245	2.6952
9.8459	2.7609
10.1313	2.7984
10.884	2.8454
11.8314	2.8878
12.1038	2.9393
13.0123	2.9677
13.9597	3.0148
14.907	3.0479
15.8674	3.0904
16.075	3.1185
16.8277	3.1328
17.827	3.1753
18.2293	3.1941
18.8393	3.1991
19.9165	3.223
