Adsorption isotherm of Methane on Shirasagi MSC CT-350
DOI: 10.1007/s10450-016-9821-x
Article source: Figure 2e
Adsorbate Methane: InChIKey VNWKTOKETHGBQD-UHFFFAOYSA-N
Kind: experiment
Temperature: 333 K
Tabular data in the source: 0
pressure (bar)	uptake (mmol/g)
0.003	0.0013
0.5676	0.2869
1.6109	0.6162
5.7103	1.2109
10.3927	1.5337
