Adsorption isotherm of Methane on Zeolite KÃ¶strolith NaMSXK
DOI: 10.1007/s10450-016-9821-x
Article source: Figure 2
Adsorbate Methane: InChIKey VNWKTOKETHGBQD-UHFFFAOYSA-N
Kind: experiment
Temperature: 313 K
Tabular data in the source: 0
pressure (bar)	uptake (mmol/g)
0.245399	0.066372
0.368098	0.132743
0.552147	0.199115
0.705521	0.252212
0.858896	0.292035
1.01227	0.345133
1.96319	0.623894
2.26994	0.756637
2.94479	0.876106
3.95706	1.0885
4.04908	1.16814
4.41718	1.23451
4.93865	1.30088
5.92025	1.4469
6.31902	1.52655
6.87117	1.56637
7.94479	1.68584
8.19018	1.75221
8.92638	1.79203
9.93865	1.88496
10.184	1.92478
10.8282	1.95133
11.9018	2.03097
12.0552	2.04425
12.9448	2.11062
13.8344	2.15044
14.1718	2.16372
14.8773	2.19026
15.9202	2.25664
16.8098	2.26991
17.8834	2.32301
18.0675	2.32301
18.865	2.34956
19.8773	2.38938
