Adsorption isotherm of Carbon Dioxide on Zeolite KÃ¶strolith NaMSXK
DOI: 10.1007/s10450-016-9821-x
Article source: Figure 2
Adsorbate Carbon Dioxide: InChIKey CURLTUGMZLYLDI-UHFFFAOYSA-N
Kind: experiment
Temperature: 313 K
Tabular data in the source: 0
pressure (bar)	uptake (mmol/g)
0.031949	1.24943
0.031949	1.40046
0.031949	1.5103
0.063898	1.66133
0.063898	1.97712
0.095847	2.12815
0.255591	2.9794
0.319489	3.18535
0.415335	3.28147
0.479233	3.37757
0.57508	3.45995
0.670927	3.54233
0.798722	3.58352
0.798722	3.62471
0.894569	3.67963
1.75719	4.00915
2.8754	4.22883
3.73802	4.32494
4.88818	4.40732
5.8147	4.4897
6.90096	4.54462
7.79553	4.59954
8.88179	4.627
9.90415	4.68192
11.7572	4.72311
13.8019	4.7643
15.6869	4.83295
17.7316	4.81922
19.7125	4.86041
