Adsorption isotherm of Carbon Dioxide on CarboTech D 55/1.5
DOI: 10.1007/s10450-016-9821-x
Article source: Figure 2b
Adsorbate Carbon Dioxide: InChIKey CURLTUGMZLYLDI-UHFFFAOYSA-N
Kind: experiment
Temperature: 313 K
Tabular data in the source: 0
pressure (bar)	uptake (mmol/g)
0.0301	0.0159
0.3024	0.8774
0.4878	1.1616
0.5765	1.2892
0.7139	1.411
0.8512	1.5357
0.9644	1.6285
0.9802	1.7329
1.7891	2.2751
2.4204	2.6259
2.8984	2.7563
3.83	3.0489
4.0405	3.1446
4.4213	3.2518
4.7132	3.2691
4.8915	3.3096
5.8236	3.4804
6.1315	3.5587
6.3828	3.5905
6.9099	3.6251
7.8584	3.7553
8.2961	3.8277
8.7628	3.8638
9.8457	3.9475
10.2032	3.9912
11.746	4.082
12.1341	4.1258
13.7588	4.1873
14.1775	4.242
15.6898	4.2853
16.1394	4.3034
17.7334	4.3613
18.0604	4.3868
19.7711	4.3979
