Adsorption isotherm of Nitrogen on Zeolite KÃ¶strolith NaMSXK
DOI: 10.1007/s10450-016-9821-x
Article source: Figure 1b
Adsorbate Nitrogen: InChIKey IJGRMHOSHXDMSA-UHFFFAOYSA-N
Kind: experiment
Temperature: 77 K
Tabular data in the source: 0
pressure (bar)	uptake (cm3(STP)/g)
0.006535	134.662
0.024257	137.35
0.050824	139.756
0.079083	140.325
0.104809	141.035
0.129693	142.027
0.154578	142.03
0.181145	142.457
0.20603	143.166
0.233864	143.735
0.250318	143.878
0.256215	143.596
0.277311	145.012
0.281526	144.164
0.302611	145.015
0.308518	144.309
0.324122	144.735
0.326645	145.442
0.33466	144.594
0.352371	145.869
0.358704	144.456
0.376841	146.296
0.386537	144.883
0.402566	146.581
0.410996	145.734
0.427309	147.04
0.433004	145.582
0.452417	147.267
0.460452	145.697
0.477191	148.28
0.482206	146.485
0.501964	149.741
0.507314	146.712
0.528744	150.754
0.534763	147.164
0.553507	150.869
0.560873	147.616
0.579618	151.433
0.585302	147.955
0.605729	151.997
0.609407	147.846
0.627493	151.999
0.636187	148.971
0.655945	152.9
0.660292	149.31
0.680374	153.464
0.685734	149.986
0.70615	153.691
0.710497	150.438
0.732261	154.255
0.736942	151.451
0.757704	155.605
0.758038	151.902
0.780805	157.627
0.786155	153.251
0.809247	154.376
0.810928	158.416
0.832683	156.398
0.839724	162.122
0.8593	164.762
0.862208	158.439
0.882138	161.914
0.884813	170.375
0.911633	166.638
0.915109	180.977
0.933438	173.854
0.938778	193.537
0.959488	189.531
0.965365	213.044
0.982367	214.292
0.98798	237.627
0.997555	244.664
