Adsorption isotherm of Nitrogen on CarboTech D55/1.5
DOI: 10.1007/s10450-016-9821-x
Article source: Figure 1
Adsorbate Nitrogen: InChIKey IJGRMHOSHXDMSA-UHFFFAOYSA-N
Kind: experiment
Temperature: 77 K
Tabular data in the source: 0
pressure (bar)	uptake (cm3(STP)/g)
0.007498	142.286
0.011782	144.857
0.026777	150.571
0.047128	154
0.073905	155.714
0.102825	157.143
0.128531	158.286
0.152095	158.857
0.178872	159.429
0.205649	160
0.230284	160.571
0.254919	161.143
0.279554	161.429
0.306331	162
0.329895	162
0.35453	162.286
0.381308	162.857
0.404872	162.857
0.431649	162.857
0.455213	162.857
0.48199	163.143
0.506625	163.429
0.533402	163.429
0.558037	163.429
0.584814	163.714
0.608378	163.429
0.634085	163.429
0.657649	163.714
0.682284	164
0.709061	164
0.733696	164
0.759402	164.286
0.785108	164.571
0.809743	164.286
0.834378	164.571
0.860084	164.857
0.886862	164.857
0.911497	164.857
0.936132	164.857
0.960767	165.714
0.987544	166.286
0.00964	148
0.248493	162
0.27527	162.286
0.300976	162.571
0.327753	162.571
0.350246	162.571
0.378094	163.429
0.402729	163.714
0.427364	164
0.450928	164
0.477706	164
0.504483	164.286
0.529118	164.571
0.553753	164.857
0.577317	165.143
0.603023	164.857
0.627658	165.429
0.652293	165.143
0.677999	164.857
0.704776	164.857
0.730483	164.857
0.755118	165.143
0.779753	165.143
0.805459	165.143
0.830094	165.714
0.8558	165.714
0.880435	165.714
0.902928	166.286
0.932918	166.286
0.955411	166.286
0.982188	166.571
0.996113	167.429
