Adsorption isotherm of Methane on Shirasagi MSC CT-350
DOI: 10.1007/s10450-016-9821-x
Article source: Figure 2e
Adsorbate Methane: InChIKey VNWKTOKETHGBQD-UHFFFAOYSA-N
Kind: experiment
Temperature: 313 K
Tabular data in the source: 0
pressure (bar)	uptake (mmol/g)
0.003	0.0013
0.7615	0.5041
1.9062	0.8729
5.5642	1.4261
10.3278	1.7892
