Adsorption isotherm of Carbon Dioxide on Shirasagi MSC CT-350
DOI: 10.1007/s10450-016-9821-x
Article source: Figure 2
Adsorbate Carbon Dioxide: InChIKey CURLTUGMZLYLDI-UHFFFAOYSA-N
Kind: experiment
Temperature: 333 K
Tabular data in the source: 0
pressure (bar)	uptake (mmol/g)
0.123648	0.144766
0.123648	0.233853
0.216383	0.367483
0.278207	0.445434
0.370943	0.5902
0.556414	0.790646
0.64915	0.91314
0.803709	1.0245
0.958269	1.12472
1.48377	1.42539
1.97836	1.6147
2.99845	1.91537
4.01855	2.14922
5.00773	2.30512
7.017	2.52784
9.02627	2.70601
11.0046	2.82851
13.0139	2.90646
14.9923	2.97327
17.0015	3.05122
18.9799	3.08463
19.9382	3.1069
