Adsorption isotherm of Carbon Dioxide on Shirasagi MSC CT-350
DOI: 10.1007/s10450-016-9821-x
Article source: Figure 2f
Adsorbate Carbon Dioxide: InChIKey CURLTUGMZLYLDI-UHFFFAOYSA-N
Kind: experiment
Temperature: 313 K
Tabular data in the source: 0
pressure (bar)	uptake (mmol/g)
0.0173	0.0046
0.1151	0.3029
0.1851	0.6036
0.2236	0.673
0.5506	1.1725
0.711	1.3829
0.923	1.561
1.4501	1.8801
1.9517	2.102
2.9681	2.4026
3.9718	2.6268
4.995	2.7793
7.0094	3.0011
9.0206	3.1215
11.0156	3.2349
13.0027	3.3104
15.0303	3.3685
17.0093	3.4091
18.9883	3.4439
19.9616	3.4583
