Adsorption isotherm of Carbon Dioxide on Shirasagi MSC CT-350
DOI: 10.1007/s10450-016-9821-x
Article source: Figure 2
Adsorbate Carbon Dioxide: InChIKey CURLTUGMZLYLDI-UHFFFAOYSA-N
Kind: experiment
Temperature: 313 K
Tabular data in the source: 0
pressure (bar)	uptake (mmol/g)
0.15456	0.233853
0.185471	0.32294
0.092736	0.478842
0.216383	0.668151
0.15456	0.445434
0.556414	1.1804
0.772798	1.39198
0.989181	1.58129
1.48377	1.8931
1.97836	2.10468
2.99845	2.41648
4.01855	2.6392
4.9459	2.77283
6.98609	3.00668
8.99536	3.15145
11.0046	3.24054
13.0448	3.31849
15.0232	3.3853
17.0015	3.41871
19.0726	3.46325
19.9382	3.47439
