Adsorption isotherm of Methane on CarboTech D 55/1.5
DOI: 10.1007/s10450-016-9821-x
Article source: Figure 2a
Adsorbate Methane: InChIKey VNWKTOKETHGBQD-UHFFFAOYSA-N
Kind: experiment
Temperature: 333 K
Tabular data in the source: 0
pressure (bar)	uptake (mmol/g)
0.0937	0.0408
0.1747	0.0933
0.2265	0.1598
0.3302	0.2251
0.4436	0.3161
0.57	0.4013
0.6932	0.4632
0.8294	0.5215
0.9526	0.5799
1.0563	0.6475
1.974	0.9861
2.214	1.0772
2.9081	1.2256
3.9331	1.4126
4.1471	1.4838
4.2217	1.5048
4.8089	1.5576
5.9475	1.7261
6.1421	1.7751
7.0245	1.8618
7.9588	1.9602
8.1564	1.9841
8.8268	2.0285
10.0612	2.1231
10.8541	2.1881
12.0477	2.2681
12.1785	2.2858
12.8162	2.3125
13.9116	2.3924
14.8845	2.4281
15.8982	2.4756
16.0944	2.4963
16.9774	2.5055
18.0239	2.5648
18.2773	2.5885
19.0458	2.6153
19.9778	2.6392
