Adsorption isotherm of Methane on Zeolite KÃ¶strolith NaMSXK
DOI: 10.1007/s10450-016-9821-x
Article source: Figure 2
Adsorbate Methane: InChIKey VNWKTOKETHGBQD-UHFFFAOYSA-N
Kind: experiment
Temperature: 333 K
Tabular data in the source: 0
pressure (bar)	uptake (mmol/g)
0.337423	0.053097
0.552147	0.119469
0.766871	0.146018
0.920245	0.225664
1.99387	0.451327
2.97546	0.637168
3.92638	0.809735
4.32515	0.876106
4.90798	0.969027
5.95092	1.0885
6.19632	1.12832
6.96319	1.22124
7.94479	1.31416
8.09816	1.35398
8.95706	1.43363
9.8773	1.5
10.184	1.52655
10.9202	1.57965
11.8405	1.64602
12.0552	1.65929
12.9141	1.71239
13.865	1.79203
14.2025	1.80531
14.908	1.83186
15.8589	1.87168
15.9816	1.89823
16.9325	1.92478
17.9141	1.9646
18.0675	1.9646
18.865	1.99115
19.8466	2.04425
