Adsorption isotherm of Carbon Dioxide on Shirasagi MSC CT-350
DOI: 10.1007/s10450-016-9821-x
Article source: Figure 2f
Adsorbate Carbon Dioxide: InChIKey CURLTUGMZLYLDI-UHFFFAOYSA-N
Kind: experiment
Temperature: 293 K
Tabular data in the source: 0
pressure (bar)	uptake (mmol/g)
0.0173	0.0046
0.049	0.2756
0.0811	0.4067
0.1134	0.4796
0.1204	0.8992
0.1207	0.7826
0.2174	1.0332
0.3302	1.3187
0.4999	1.5722
0.6453	1.7849
0.8071	1.9451
0.9689	2.1054
1.4711	2.4084
1.9572	2.6239
2.9784	2.9181
3.9513	3.0987
4.9486	3.2384
6.9596	3.4218
8.9952	3.5294
10.9903	3.6166
13.026	3.6805
14.9969	3.7298
16.9922	3.75
18.9874	3.7906
19.9445	3.7788
