Adsorption isotherm of Carbon Dioxide on KÃ¶strolith NaMSXK
DOI: 10.1007/s10450-016-9821-x
Article source: Figure 2d
Adsorbate Carbon Dioxide: InChIKey CURLTUGMZLYLDI-UHFFFAOYSA-N
Kind: experiment
Temperature: 333 K
Tabular data in the source: 0
pressure (bar)	uptake (mmol/g)
0.0091	0.0068
0.0801	0.3071
0.1072	0.8952
0.1223	0.4514
0.1513	1.5409
0.1582	1.1441
0.1586	1.2379
0.1765	1.5914
0.1783	2.0965
0.1828	1.0178
0.1863	1.9882
0.2019	1.6708
0.3635	2.486
0.4059	2.6519
0.5067	2.7889
0.599	2.9115
0.7331	3.0161
0.8672	3.1206
0.9343	3.1927
1.0181	3.2685
1.9051	3.6251
3.0508	3.8806
3.8702	4.0064
4.9067	4.1213
5.96	4.2217
6.9128	4.2752
7.9241	4.3576
8.9792	4.3833
9.9345	4.4343
11.8315	4.4905
13.8744	4.5466
15.8378	4.6028
17.8143	4.6303
19.871	4.6545
