Adsorption isotherm of Methane on KÃ¶strolith NaMSXK
DOI: 10.1007/s10450-016-9821-x
Article source: Figure 2c
Adsorbate Methane: InChIKey VNWKTOKETHGBQD-UHFFFAOYSA-N
Kind: experiment
Temperature: 293 K
Tabular data in the source: 0
pressure (bar)	uptake (mmol/g)
0.0959	0.1017
0.243	0.1734
0.3327	0.2368
0.4735	0.3194
0.5567	0.3608
0.6207	0.3966
0.7613	0.4517
0.9019	0.4986
0.998	0.5647
1.8486	0.945
2.3025	1.1214
2.967	1.2978
3.9254	1.5486
4.0724	1.6009
4.3981	1.6588
4.8645	1.7635
5.8478	1.9206
6.2501	1.973
6.8502	2.0419
7.8652	2.1439
8.1461	2.1742
8.8802	2.2431
9.8998	2.3056
10.2055	2.3472
10.8166	2.375
11.8458	2.4306
12.087	2.4375
12.875	2.4792
13.8078	2.5347
14.0329	2.5347
14.8852	2.5833
15.866	2.6042
15.9947	2.6111
16.8471	2.6597
17.8439	2.6736
18.0369	2.6944
18.857	2.7153
19.902	2.7222
