Adsorption isotherm of Carbon Dioxide on Fe-PCD@TD-COF
DOI: 10.1002/adfm.202002654
Article source: Figure S17 (b)
Adsorbate Carbon Dioxide: InChIKey CURLTUGMZLYLDI-UHFFFAOYSA-N
Kind: experiment
Temperature: 273 K
Tabular data in the source: 0
pressure (bar)	uptake (cm3(STP)/g)
1.45833	1.81818
4.16667	5.06494
6.66667	7.53247
9.58333	9.61039
12.0833	11.948
14.5833	14.026
17.0833	15.8442
20	17.4026
22.7083	19.2208
25.4167	20.6493
27.9167	22.3377
30.8333	23.7662
33.3333	25.1948
35.8333	26.4935
38.75	27.7922
41.25	29.0909
43.9583	30.3896
46.4583	31.6883
49.375	32.8571
52.0833	34.026
54.5833	34.9351
57.2917	36.1039
59.7917	37.4026
62.5	38.4416
65.2083	39.4805
67.9167	40.5195
70.8333	41.5584
73.125	42.4675
75.8333	43.5065
78.75	44.5454
81.25	45.1948
83.9583	46.2338
86.6667	47.2727
89.1667	48.0519
91.6667	48.8312
94.5833	49.8701
97.2917	50.6493
99.7917	51.4286
102.917	52.4675
105.208	53.1169
1.25	2.85714
3.95833	6.1039
6.66667	8.7013
9.375	11.039
12.0833	13.2467
14.7917	15.1948
17.2917	17.1429
20	18.7013
22.7083	20.5195
25.2083	22.0779
27.9167	23.6364
30.625	25.1948
33.3333	26.6234
35.8333	27.7922
38.5417	29.3507
41.25	30.5195
43.75	31.6883
46.6667	32.987
49.375	34.1558
52.0833	35.3247
54.5833	36.4935
57.2917	37.5325
59.7917	38.5714
62.5	39.7403
65.2083	40.5195
67.9167	41.5584
70.625	42.4675
73.125	43.5065
75.8333	44.2857
78.5417	45.3247
81.25	46.2338
83.75	47.013
86.4583	47.9221
89.1667	48.5714
91.875	49.6104
94.5833	50.2597
97.0833	51.039
100.833	51.9481
103.333	52.7273
107.917	53.8961
