Adsorption isotherm of Nitrogen on Fe-PCD@TD-COF
DOI: 10.1002/adfm.202002654
Article source: Figure S17 (a)
Adsorbate Nitrogen: InChIKey IJGRMHOSHXDMSA-UHFFFAOYSA-N
Kind: experiment
Temperature: 298 K
Tabular data in the source: 0
pressure (bar)	uptake (cm3(STP)/g)
1.25436	0.34335
4.18118	0.34335
6.48084	0.42918
9.19861	0.34335
11.9164	0.42918
14.4251	0.51502
17.1429	0.60086
19.8606	0.60086
22.5784	0.60086
25.2962	0.6867
28.0139	0.6867
30.5226	0.6867
33.2404	0.77253
35.9582	0.85837
38.885	0.85837
41.3937	0.85837
44.1115	0.94421
46.6202	1.03004
49.338	1.03004
52.0558	1.11588
54.5645	1.11588
57.2822	1.20172
60	1.20172
62.7178	1.20172
65.2265	1.20172
67.9443	1.28755
70.662	1.28755
73.3798	1.28755
76.0976	1.37339
78.8153	1.37339
81.324	1.37339
84.0418	1.37339
86.7596	1.37339
89.4773	1.45923
91.9861	1.54506
94.7038	1.54506
97.4216	1.54506
100.139	1.54506
102.857	1.54506
105.366	1.6309
108.084	1.6309
