Adsorption isotherm of Carbon Dioxide on Co-PCD@TD-COF
DOI: 10.1002/adfm.202002654
Article source: Figure S17 (a)
Adsorbate Carbon Dioxide: InChIKey CURLTUGMZLYLDI-UHFFFAOYSA-N
Kind: experiment
Temperature: 298 K
Tabular data in the source: 0
pressure (bar)	uptake (cm3(STP)/g)
15.0523	9.27039
17.1429	10.4721
20.0697	11.3305
22.5784	12.5322
25.0871	13.7339
28.0139	14.764
30.9408	15.6223
33.0314	16.6524
36.3763	17.6824
38.885	18.3691
41.8119	19.485
44.3206	20.0858
47.2474	20.9442
49.7561	21.8026
52.2648	22.6609
54.7735	23.3476
57.7004	24.206
60	24.8927
62.7178	25.7511
65.0174	26.5236
68.5714	27.2961
70.662	27.9828
74.8432	29.0129
77.561	29.8712
80.2787	30.5579
99.5122	35.7081
102.439	36.3949
105.366	37.0816
28.0139	14.9356
30.3136	16.1373
33.0314	17.0816
35.9582	18.1974
38.4669	19.0558
40.9756	20.0858
43.9024	21.1159
46.6202	21.8026
49.338	22.6609
52.0558	23.3476
54.7735	24.3777
57.2822	25.0644
60	25.9228
62.7178	26.6094
65.2265	27.4678
67.9443	28.2403
70.662	29.0129
73.1707	29.6137
75.8885	30.3004
78.6063	31.073
81.115	31.7597
84.0418	32.3605
86.7596	32.9614
89.2683	33.6481
91.9861	34.2489
94.7038	34.8498
97.4216	35.5365
100.767	36.0515
103.693	36.5665
108.293	37.5966
