Adsorption isotherm of Nitrogen on TD-COF
DOI: 10.1002/adfm.202002654
Article source: Figure 2 (a)
Adsorbate Nitrogen: InChIKey IJGRMHOSHXDMSA-UHFFFAOYSA-N
Kind: experiment
Temperature: 77 K
Tabular data in the source: 0
pressure (bar)	uptake (cm3(STP)/g)
0.01145	116.486
0.01527	131.889
0.028624	146.33
0.047704	161.733
0.068698	177.136
0.083958	189.651
0.109725	206.017
0.131662	210.83
0.151704	215.162
0.173641	219.495
0.191778	222.383
0.212762	223.345
0.232804	226.233
0.251884	226.233
0.274783	228.159
0.291958	230.084
0.312942	230.084
0.332022	232.972
0.353016	233.935
0.374001	234.898
0.39309	235.86
0.41599	237.786
0.435069	238.749
0.454149	239.711
0.473228	241.637
0.496128	242.599
0.519027	242.599
0.536202	243.562
0.557196	244.525
0.578181	245.487
0.59726	247.413
0.617302	247.894
0.637334	249.338
0.660234	250.301
0.679313	252.708
0.700308	253.189
0.722255	256.077
0.738467	256.077
0.761366	258.002
0.782361	259.928
0.799535	261.853
0.822435	263.779
0.839609	266.667
0.860594	269.555
0.881588	272.443
0.902573	278.219
0.923567	284.958
0.944552	293.622
0.965546	304.212
0.978901	312.876
0.099228	210.83
0.116402	215.644
0.135482	221.42
0.154561	224.308
0.171736	227.196
0.190815	229.122
0.209905	231.047
0.228984	232.01
0.246159	232.972
0.267143	234.898
0.284318	235.86
0.301493	236.823
0.318667	237.786
0.339662	238.749
0.358741	239.711
0.377821	240.674
0.395948	241.637
0.414075	242.599
0.434117	243.562
0.451291	244.525
0.469418	245.487
0.492318	252.226
0.515207	266.667
0.534297	269.555
0.557196	271.48
0.576276	273.406
0.599175	275.331
0.61635	275.331
0.635429	277.256
0.652604	279.663
0.671683	280.144
0.690763	281.107
0.707938	281.107
0.728932	283.995
0.748964	285.921
0.764234	286.402
0.782361	289.771
0.80144	291.697
0.82052	294.585
0.837694	296.51
0.854869	300.361
0.873948	304.212
0.894943	309.025
0.912118	313.839
0.931197	317.69
0.956001	327.316
0.967451	335.018
0.987493	350.421
1.0018	356.197
