Adsorption isotherm of Nitrogen on Ni-PCD@TD-COF
DOI: 10.1002/adfm.202002654
Article source: Figure S7
Adsorbate Nitrogen: InChIKey IJGRMHOSHXDMSA-UHFFFAOYSA-N
Kind: experiment
Temperature: 273 K
Tabular data in the source: 0
pressure (bar)	uptake (cm3(STP)/g)
1.57598	0.32558
4.05253	0.16279
6.52908	0.24419
9.45591	0.32558
11.9325	0.32558
14.6341	0.32558
17.3358	0.32558
20.0375	0.48837
22.6266	0.56977
25.3283	0.56977
28.1426	0.65116
30.7317	0.65116
33.4334	0.65116
36.0225	0.65116
38.9493	0.81395
41.4259	0.81395
44.015	0.89535
46.6041	0.81395
49.3058	0.97674
52.0075	0.89535
54.7092	1.05814
57.4109	1.13953
60	1.05814
62.7017	1.13953
65.2908	1.13953
68.1051	1.13953
70.8067	1.13953
73.3959	1.13953
75.985	1.22093
78.6867	1.22093
81.2758	1.22093
83.8649	1.30233
86.7917	1.30233
89.3809	1.38372
92.0826	1.38372
94.5591	1.46512
97.3734	1.46512
99.9625	1.46512
102.777	1.46512
105.253	1.46512
107.955	1.46512
