Adsorption isotherm of Carbon Dioxide on Co-PCD@TD-COF
DOI: 10.1002/adfm.202002654
Article source: Figure S17 (b)
Adsorbate Carbon Dioxide: InChIKey CURLTUGMZLYLDI-UHFFFAOYSA-N
Kind: experiment
Temperature: 273 K
Tabular data in the source: 0
pressure (bar)	uptake (cm3(STP)/g)
34.5833	26.2338
37.5	28.052
40	29.0909
42.5	30.1299
45.4167	31.4286
47.5	32.4675
50.4167	33.7662
53.3333	35.3247
55.8333	36.1039
58.3333	37.4026
61.25	38.4416
63.75	39.2208
66.6667	40.7792
69.5833	41.8182
72.0833	42.8571
74.7917	43.7662
99.5833	52.2078
102.083	52.7273
105	53.7662
30.625	25.5844
33.125	27.013
35.8333	28.3117
38.75	29.8701
41.25	30.9091
43.9583	32.2078
46.4583	33.5065
49.375	34.6753
52.0833	36.1039
54.5833	37.013
57.0833	38.1818
59.7917	39.2208
62.5	40.1299
65.2083	41.2987
67.9167	42.3377
70.625	43.1169
73.3333	44.1558
75.8333	44.9351
78.5417	45.974
81.25	46.8831
83.75	47.7922
86.4583	48.5714
89.1667	49.3507
91.875	50.1299
94.5833	50.9091
97.0833	51.9481
100.833	52.7273
103.333	53.5065
107.917	54.8052
