Adsorption isotherm of Carbon Dioxide on Ni-PCD@TD-COF
DOI: 10.1002/adfm.202002654
Article source: Figure 2 (b)
Adsorbate Carbon Dioxide: InChIKey CURLTUGMZLYLDI-UHFFFAOYSA-N
Kind: experiment
Temperature: 298 K
Tabular data in the source: 0
pressure (bar)	uptake (cm3(STP)/g)
1.61074	1.05386
3.91179	3.0445
6.90316	4.44965
8.97411	5.26932
11.9655	6.55738
14.2665	7.84543
16.7977	9.13349
19.7891	10.1874
22.7804	11.5925
25.0815	12.4122
27.8428	13.466
30.604	14.2857
33.3653	15.5738
35.8965	16.5105
38.6577	17.3302
41.6491	18.267
44.1802	19.0867
46.7114	19.7892
49.7028	20.6089
51.7737	21.5457
54.3049	22.2482
57.2963	22.9508
59.8274	23.8876
62.5887	24.4731
65.35	25.1756
68.3413	25.9953
70.6424	26.9321
73.8639	27.5176
76.1649	28.2201
78.6961	28.9227
81.4573	29.6253
83.7584	30.2108
86.5197	30.7962
89.2809	31.733
91.582	32.2014
94.1131	33.0211
97.3346	33.6066
100.326	34.5433
105.388	35.8314
1.38063	1.52225
4.1419	3.27869
6.90316	4.68384
9.66443	6.20609
12.0805	7.61124
14.9569	8.7822
17.6031	10.1288
20.0192	11.1241
22.7804	12.178
25.5417	13.2318
28.0729	14.2857
30.8341	15.2225
33.5954	16.5105
36.1266	17.3302
38.6577	18.0328
41.419	19.0867
43.9501	20.0234
46.4813	20.6089
49.4727	21.7799
52.0038	22.4824
54.7651	23.185
57.2963	23.8876
60.2876	24.5902
62.5887	25.4098
65.35	26.4637
68.2263	27.1663
70.8725	27.8689
73.4036	28.4543
75.9348	29.274
78.6961	29.8595
81.4573	30.5621
83.7584	31.0304
86.7498	31.8501
89.2809	32.3185
91.8121	33.0211
94.8035	33.4895
97.3346	34.0749
100.786	34.8946
103.317	35.363
107.919	36.2998
