Adsorption isotherm of Carbon Dioxide on Fe-PCD@TD-COF
DOI: 10.1002/adfm.202002654
Article source: Figure S17 (a)
Adsorbate Carbon Dioxide: InChIKey CURLTUGMZLYLDI-UHFFFAOYSA-N
Kind: experiment
Temperature: 298 K
Tabular data in the source: 0
pressure (bar)	uptake (cm3(STP)/g)
1.25436	1.20172
4.18118	3.09013
6.48084	4.29185
9.19861	5.83691
11.9164	7.03863
14.4251	8.32618
17.1429	9.35622
19.8606	10.5579
22.5784	11.588
25.0871	12.7039
28.0139	13.8197
30.5226	14.764
33.2404	15.794
35.9582	16.824
38.676	17.7682
41.3937	18.6266
43.9024	19.3991
46.6202	20.3433
49.338	21.2017
52.0558	22.0601
54.7735	22.8326
57.2822	23.691
60	24.4635
62.7178	25.3219
65.4355	26.0086
67.9443	26.7811
70.662	27.4678
73.1707	28.3262
76.0976	29.0129
78.6063	29.6996
81.324	30.4721
84.0418	31.2446
86.7596	31.7597
89.4773	32.4464
92.1951	33.2189
94.9129	33.8197
97.4216	34.5923
100.139	35.1931
102.857	35.8798
105.366	36.3949
1.25436	1.88841
3.97213	3.69099
6.48084	5.15021
9.19861	6.69528
11.9164	7.98283
14.4251	9.27039
17.3519	10.5579
19.8606	11.7597
22.5784	12.7039
25.2962	13.9056
28.0139	14.9356
30.5226	15.9657
33.2404	16.9099
35.9582	17.8541
38.676	18.7983
41.3937	19.7425
43.9024	20.6009
46.6202	21.4592
49.338	22.4034
52.0558	23.176
54.5645	23.9485
57.2822	24.721
59.7909	25.5794
62.7178	26.2661
65.2265	27.0386
67.9443	27.8112
70.662	28.4979
73.3798	29.1845
75.8885	29.8712
78.6063	30.4721
81.324	31.1588
84.0418	31.8455
86.7596	32.4464
89.2683	33.0472
91.9861	33.6481
94.7038	34.2489
97.4216	34.8498
100.767	35.6223
103.484	36.0515
107.875	37.0816
