Adsorption isotherm of Nitrogen on Ni-PCD@TD-COF
DOI: 10.1002/adfm.202002654
Article source: Figure 2 (a)
Adsorbate Nitrogen: InChIKey IJGRMHOSHXDMSA-UHFFFAOYSA-N
Kind: experiment
Temperature: 77 K
Tabular data in the source: 0
pressure (bar)	uptake (cm3(STP)/g)
0.00382	17.3285
0.001905	30.8063
0.001905	47.1721
0.00382	61.6125
0.00382	77.9783
0.005725	91.4561
0.005725	108.785
0.00763	120.337
0.01527	133.815
0.026719	149.218
0.049609	170.397
0.064878	182.912
0.085873	201.203
0.087778	206.98
0.108762	220.457
0.129757	231.047
0.145026	236.823
0.158381	240.674
0.173641	244.525
0.190815	248.375
0.21181	249.338
0.230889	250.301
0.249016	251.264
0.272868	252.226
0.291958	253.189
0.312942	254.152
0.332022	255.114
0.354921	257.04
0.374001	257.04
0.394995	258.002
0.41217	258.965
0.436974	258.965
0.454149	260.409
0.469418	260.891
0.486593	260.891
0.507577	261.853
0.538107	261.853
0.558149	262.335
0.579133	262.816
0.598223	262.816
0.618255	262.816
0.637334	263.779
0.658329	265.704
0.675503	267.629
0.696488	268.592
0.717482	268.592
0.736562	268.592
0.759461	269.555
0.778541	270.517
0.799535	271.48
0.822435	273.406
0.839609	273.406
0.862499	275.331
0.881588	278.219
0.900668	280.144
0.923567	285.921
0.944552	288.809
0.963641	296.51
0.982721	310.951
0.994171	330.205
0.101132	230.084
0.116402	234.898
0.135482	238.749
0.152656	244.525
0.173641	247.413
0.19273	251.264
0.20799	252.226
0.228984	254.152
0.246159	254.633
0.267143	257.04
0.284318	257.04
0.301493	257.04
0.320572	258.965
0.339662	258.965
0.356836	259.928
0.377821	260.891
0.39309	260.891
0.413122	261.853
0.436974	262.816
0.450329	262.816
0.465599	263.779
0.492318	266.667
0.505673	271.48
0.524752	272.443
0.541927	273.406
0.561006	274.368
0.578181	274.85
0.599175	276.294
0.615387	276.775
0.635429	277.256
0.652604	277.256
0.673588	277.256
0.690763	278.7
0.707938	279.182
0.729885	279.663
0.746107	281.107
0.765186	283.033
0.784266	283.033
0.80144	284.958
0.81671	284.958
0.839609	286.883
0.856774	287.846
0.875863	290.253
0.892075	293.622
0.912118	297.473
0.927377	301.324
0.956001	312.395
0.972224	322.503
0.990351	335.981
1.0018	340.794
