Adsorption isotherm of Carbon Dioxide on TD-COF
DOI: 10.1002/adfm.202002654
Article source: Figure 2 (b)
Adsorbate Carbon Dioxide: InChIKey CURLTUGMZLYLDI-UHFFFAOYSA-N
Kind: experiment
Temperature: 298 K
Tabular data in the source: 0
pressure (bar)	uptake (cm3(STP)/g)
4.372	2.57611
6.21285	3.74707
8.74401	4.80094
11.9655	6.44028
14.2665	7.37705
17.0278	8.7822
19.3289	9.95316
22.3202	11.007
24.6213	11.8267
27.6127	12.9977
30.3739	13.9344
32.9051	14.8712
35.6664	15.9251
38.4276	16.5105
41.1889	17.4473
43.72	18.267
46.5964	19.0867
49.2426	19.7892
51.7737	20.726
54.535	21.4286
57.0662	22.1311
59.9425	22.8923
62.7037	23.6534
65.1199	24.4731
68.1112	25.0585
70.8725	25.7611
73.1735	26.5808
75.9348	27.1663
78.466	27.8103
81.2272	28.4543
83.7584	29.0398
86.5197	29.7424
89.2809	30.445
92.0422	31.0304
94.8035	31.733
97.1045	32.2014
99.9808	32.904
102.627	33.6066
105.158	34.0749
75.7047	27.986
78.9262	28.5714
81.4573	29.0398
83.7584	29.6253
86.7498	30.5621
89.2809	31.089
91.697	31.6745
94.5733	32.2014
97.2196	32.7283
100.671	33.2553
103.087	33.7237
107.689	34.7775
