Adsorption isotherm of Carbon Dioxide on TD-COF
DOI: 10.1002/adfm.202002654
Article source: Figure S7
Adsorbate Carbon Dioxide: InChIKey CURLTUGMZLYLDI-UHFFFAOYSA-N
Kind: experiment
Temperature: 273 K
Tabular data in the source: 0
pressure (bar)	uptake (cm3(STP)/g)
1.35084	1.7907
4.27767	4.55814
6.52908	6.67442
9.23077	8.95349
11.7073	11.0698
14.8593	12.6977
17.561	14.3256
20.0375	15.9535
22.5141	17.4186
25.4409	19.2093
28.03	20.4302
30.8443	21.8139
33.3208	23.1977
36.1351	24.4186
38.7242	25.5581
41.4259	26.6977
44.015	28
46.7167	29.0581
49.3058	30.1163
52.0075	31.3372
54.7092	32.2326
57.4109	33.3721
60.1126	34.3488
62.7017	35.3256
65.4034	36.3023
68.1051	37.1977
70.6942	38.093
73.3959	38.907
76.2101	39.9651
78.7992	40.6977
81.2758	41.5116
84.2026	42.3256
86.9043	43.3023
89.3809	43.9535
92.0826	44.7674
94.334	45.5814
97.2608	46.3954
99.9625	47.3721
102.664	47.8605
105.591	48.6744
33.546	24.5814
36.2477	25.7209
38.7242	26.8605
41.651	28.3256
44.1276	29.1395
46.8293	30.2791
49.3058	31.3372
52.0075	32.5581
54.7092	33.5349
57.4109	34.3488
60	35.407
62.7017	36.3023
65.2908	37.2791
67.9925	38.093
70.6942	38.9884
73.3959	39.8837
75.985	40.6977
78.6867	41.5116
81.3884	42.3256
83.9775	43.1395
86.6792	43.8721
89.3809	44.6046
91.97	45.4186
94.7842	46.0698
97.4859	46.8837
100.863	47.6977
103.565	48.3488
108.068	49.4884
