Adsorption isotherm of Nitrogen on Fe-PCD@TD-COF
DOI: 10.1002/adfm.202002654
Article source: Figure S17 (b)
Adsorbate Nitrogen: InChIKey IJGRMHOSHXDMSA-UHFFFAOYSA-N
Kind: experiment
Temperature: 273 K
Tabular data in the source: 0
pressure (bar)	uptake (cm3(STP)/g)
1.25	0.25974
4.16667	0.25974
6.66667	0.25974
9.375	0.38961
12.0833	0.25974
14.7917	0.38961
17.2917	0.38961
20	0.38961
22.7083	0.51948
25.4167	0.51948
28.125	0.51948
30.625	0.77922
33.3333	0.64935
36.0417	0.77922
38.75	0.77922
41.25	0.77922
43.9583	0.77922
46.6667	0.77922
49.1667	0.77922
51.875	0.90909
54.5833	1.03896
57.2917	1.03896
60	1.03896
62.5	1.03896
65.4167	1.03896
67.9167	1.03896
70.625	1.16883
73.125	1.16883
76.0417	1.16883
78.5417	1.16883
81.25	1.2987
83.75	1.2987
86.4583	1.2987
89.1667	1.2987
91.875	1.2987
94.5833	1.2987
97.0833	1.2987
99.7917	1.2987
102.5	1.2987
105.208	1.42857
107.917	1.42857
