Adsorption isotherm of Carbon Dioxide on Ni-PCD@TD-COF
DOI: 10.1002/adfm.202002654
Article source: Figure S7
Adsorbate Carbon Dioxide: InChIKey CURLTUGMZLYLDI-UHFFFAOYSA-N
Kind: experiment
Temperature: 273 K
Tabular data in the source: 0
pressure (bar)	uptake (cm3(STP)/g)
1.35084	1.95349
4.05253	5.04651
6.30394	7.32558
9.23077	9.60465
11.9325	11.8023
14.6341	13.6744
17.561	15.4651
20.0375	16.7674
22.7392	18.8837
25.2158	20.3488
28.1426	21.8139
30.7317	23.2791
33.3208	24.5814
36.1351	25.8837
38.8368	27.3488
41.4259	28.6512
44.1276	29.7907
46.8293	30.9302
49.3058	32.2326
52.0075	33.4535
54.7092	34.3488
57.4109	35.6512
60.1126	36.5465
62.9268	37.6046
65.516	38.7442
67.9925	39.8837
70.8067	40.8605
73.621	41.8372
76.0976	42.6512
78.5741	43.6279
81.2758	44.4419
83.9775	45.4186
86.6792	46.2326
89.3809	47.2093
91.8574	48.1861
94.7842	48.8372
97.4859	49.6512
99.9625	50.4651
102.889	51.4419
105.366	52.093
1.35084	2.93023
4.05253	5.86047
6.64165	8.46512
9.45591	10.7442
12.045	13.0233
14.6341	14.8954
17.3358	16.7674
20.0375	18.4767
22.6266	20.1861
25.2158	21.7326
28.03	23.2791
30.6191	24.5814
33.3208	26.0465
36.0225	27.3488
38.7242	28.6512
41.4259	30.0349
44.1276	31.2558
46.7167	32.3954
49.4184	33.3721
52.0075	34.6744
54.7092	35.6512
57.4109	36.8721
60.1126	37.9302
62.8143	38.907
65.4034	39.8023
68.1051	40.7791
70.8067	41.7558
73.3959	42.5698
75.985	43.5465
78.6867	44.4419
81.5009	45.3372
84.0901	46.2326
86.9043	47.0465
89.3809	47.6977
91.97	48.5116
94.7842	49.4884
97.4859	50.1395
100.75	50.9535
103.565	51.7674
108.068	52.907
