Adsorption isotherm of Nitrogen on Fe-PCD@TD-COF
DOI: 10.1002/adfm.202002654
Article source: Figure S16
Adsorbate Nitrogen: InChIKey IJGRMHOSHXDMSA-UHFFFAOYSA-N
Kind: experiment
Temperature: 77 K
Tabular data in the source: 0
pressure (bar)	uptake (cm3(STP)/g)
0.002918	16.0756
0.002918	32.1513
0.002918	48.227
0.002918	63.357
0.002918	79.4326
0.002918	94.5627
0.004874	109.22
0.008765	122.931
0.015584	134.279
0.028249	150.355
0.03215	154.137
0.048717	170.686
0.070147	187.234
0.084758	203.31
0.09256	208.038
0.112045	226.95
0.139322	236.407
0.155889	241.608
0.176346	246.336
0.197776	248.7
0.217261	250.591
0.2348	252.009
0.254285	253.428
0.27377	254.374
0.293255	255.319
0.313722	256.265
0.335153	257.21
0.35561	258.156
0.374122	258.629
0.39458	260.047
0.41602	260.993
0.436478	261.939
0.456935	262.411
0.477393	262.884
0.49786	263.83
0.516372	264.303
0.53683	264.775
0.556315	265.721
0.577745	266.667
0.59723	267.612
0.617697	268.085
0.638155	269.031
0.658613	269.504
0.67907	270.449
0.699528	271.395
0.719022	271.868
0.738507	272.813
0.759937	273.286
0.779422	274.232
0.79988	275.65
0.820347	277.069
0.840805	278.487
0.86029	280.378
0.880747	282.27
0.901205	284.634
0.921672	288.416
0.94213	293.144
0.961615	301.655
0.980127	314.894
0.996683	333.806
1.00058	346.099
0.102298	228.842
0.119837	236.407
0.136404	241.135
0.156861	245.863
0.174401	249.645
0.192903	252.009
0.211415	253.428
0.229927	254.846
0.247466	255.792
0.265978	256.738
0.285463	257.21
0.303975	258.629
0.321514	259.102
0.340026	260.047
0.358539	260.993
0.377051	261.466
0.39458	261.939
0.414065	262.884
0.43745	262.884
0.450116	263.83
0.46571	264.775
0.491041	268.085
0.506625	272.813
0.524164	273.286
0.542676	274.232
0.560206	274.704
0.579701	275.177
0.598203	275.65
0.616715	276.123
0.634254	277.069
0.653739	277.541
0.672251	278.014
0.690763	278.96
0.709275	279.433
0.726814	279.905
0.745326	280.851
0.764811	281.797
0.783323	282.742
0.800853	283.688
0.819365	285.106
0.837877	286.525
0.856389	288.889
0.874901	290.78
0.893413	294.09
0.912898	297.872
0.928492	302.6
0.95284	312.53
0.969407	323.404
0.987919	336.643
1.00058	340.426
