Adsorption isotherm of Nitrogen on Co-PCD@TD-COF
DOI: 10.1002/adfm.202002654
Article source: Figure S16
Adsorbate Nitrogen: InChIKey IJGRMHOSHXDMSA-UHFFFAOYSA-N
Kind: experiment
Temperature: 77 K
Tabular data in the source: 0
pressure (bar)	uptake (cm3(STP)/g)
0.002918	47.2813
0.004874	63.357
0.002918	78.487
0.006819	95.5083
0.006819	110.638
0.009747	122.931
0.015584	136.17
0.026304	154.137
0.036051	157.92
0.051635	173.05
0.070147	190.071
0.086714	206.147
0.090605	212.766
0.113991	230.733
0.238701	260.047
0.258186	260.993
0.275726	260.993
0.296183	262.884
0.31274	262.884
0.330279	263.83
0.349764	264.775
0.367303	264.775
0.386788	265.721
0.404327	267.139
0.425758	267.612
0.47642	267.612
0.507598	269.504
0.527083	271.395
0.542676	271.868
0.566052	273.286
0.585537	273.286
0.606977	273.286
0.626462	273.286
0.645947	273.286
0.664459	274.232
0.684916	274.704
0.704401	275.177
0.733634	278.96
0.753118	278.96
0.774549	279.905
0.788187	280.851
0.809627	282.742
0.829112	284.161
0.848597	284.634
0.868082	286.525
0.887566	288.889
0.90316	291.253
0.924591	294.09
0.940174	297.4
0.961615	306.383
0.9811	319.622
0.102298	235.934
0.119837	243.972
0.137376	248.7
0.157834	252.955
0.175373	257.21
0.192903	259.102
0.211415	260.993
0.229927	262.411
0.248439	263.357
0.265978	264.303
0.285463	265.248
0.303002	266.667
0.321514	266.667
0.340026	267.612
0.358539	268.558
0.377051	269.504
0.395553	269.976
0.414065	270.449
0.436478	271.395
0.451089	272.34
0.46571	272.813
0.491041	276.123
0.506625	281.324
0.524164	282.27
0.542676	282.742
0.560206	282.742
0.578718	283.688
0.59723	284.634
0.615742	284.634
0.634254	285.579
0.653739	286.052
0.672251	286.525
0.68979	286.998
0.708302	288.416
0.727787	288.416
0.745326	289.362
0.763839	290.307
0.782351	291.253
0.800853	292.199
0.819365	294.09
0.836904	295.508
0.856389	297.4
0.874901	299.764
0.893413	302.6
0.912898	306.856
0.928492	312.057
0.95284	322.459
0.969407	333.333
0.988891	347.045
0.999612	350.827
