Adsorption isotherm of Nitrogen on TD-COF
DOI: 10.1002/adfm.202002654
Article source: Figure 2 (b)
Adsorbate Nitrogen: InChIKey IJGRMHOSHXDMSA-UHFFFAOYSA-N
Kind: experiment
Temperature: 298 K
Tabular data in the source: 0
pressure (bar)	uptake (cm3(STP)/g)
4.372	0.23419
6.67306	0.23419
9.89453	0.35129
12.1956	0.35129
14.7268	0.35129
17.2579	0.35129
20.0192	0.35129
22.5503	0.40984
25.5417	0.46838
28.303	0.46838
30.7191	0.58548
33.5954	0.58548
36.1266	0.58548
38.8878	0.58548
41.1889	0.58548
44.1802	0.70258
46.5964	0.81967
49.4727	0.81967
52.0038	0.81967
54.7651	0.93677
57.2963	0.99532
60.0575	0.93677
62.3586	0.93677
65.1199	0.93677
68.1112	1.05386
70.6424	1.05386
73.1735	1.05386
75.9348	1.17096
78.581	1.11241
81.2272	1.17096
83.9885	1.17096
86.5197	1.17096
89.0508	1.28806
91.8121	1.17096
94.5733	1.28806
96.8744	1.28806
99.8658	1.3466
102.397	1.40515
105.043	1.40515
107.919	1.40515
