Adsorption isotherm of Nitrogen on C3792H5232N560Zn192O2096-Cu
DOI: 10.1039/C1cc00047k
Adsorbate Nitrogen: InChIKey IJGRMHOSHXDMSA-UHFFFAOYSA-N
Temperature: 77 K
Tabular data in the source: 0
pressure (bar)	uptake (cm3(STP)/g)
0.000246293	15.2564
0.00041342	25.609
0.000501382	31.0577
0.00283237	5.44872
0.00292913	11.4423
0.00306107	19.6154
0.00384393	68.109
0.00389671	71.3782
0.0121739	74.1026
0.0260015	80.641
0.0480359	85.5449
0.0755504	89.9038
0.100303	93.1731
0.119549	95.3526
0.144301	98.6218
0.171772	100.256
0.196498	101.891
0.218488	104.071
0.24595	105.16
0.270667	106.25
0.28994	110.064
0.317401	111.154
0.342136	113.333
0.3641	113.878
0.388835	116.058
0.410834	118.782
0.441014	118.237
0.462987	119.327
0.487713	120.962
0.51243	122.051
0.537147	123.141
0.561865	124.231
0.583837	125.321
0.608555	126.41
0.636016	127.5
0.660742	129.135
0.68546	130.224
0.707432	131.314
0.729405	132.404
0.756867	133.494
0.781593	135.128
0.806301	135.673
0.828292	137.853
0.855754	138.942
0.877744	141.122
0.90247	142.756
0.927222	146.026
0.949239	149.84
0.974036	155.833
