Adsorption isotherm of Methane on Silicalite MFI
DOI: 10.1021/Jp992521i
Adsorbate Methane: InChIKey VNWKTOKETHGBQD-UHFFFAOYSA-N
Temperature: 300 K
Tabular data in the source: 0
pressure (bar)	uptake (mmol/g)
0.00996692	0.0142004
0.0197562	0.0294945
0.0399564	0.0677298
0.0701927	0.1442
0.0968554	0.190083
0.195887	0.350671
0.396176	0.641259
0.695976	0.931847
0.960343	1.16891
2.02203	1.62008
7.04103	2.33891
9.91306	2.49185
20.4564	2.65244
72.6805	3.05773
102.327	3.09597
