Adsorption isotherm of Ethene on Silicalite MFI
DOI: 10.1021/Jp992521i
Adsorbate Ethene: InChIKey VGGSQFUCUMXWEO-UHFFFAOYSA-N
Temperature: 300 K
Tabular data in the source: 0
pressure (bar)	uptake (mmol/g)
0.00996692	0.243612
0.0193626	0.465377
0.0391604	0.748318
0.0701927	1.0542
0.0988242	1.24538
0.191985	1.64302
0.380548	1.93361
0.695976	2.14008
0.979864	2.25479
2.02203	2.49185
4.0895	2.50714
6.76328	2.62949
10.53	2.64479
19.6495	2.78244
40.5483	2.80538
69.8134	2.83597
100.288	2.83597
