Adsorption isotherm of Carbon Dioxide on 310 Î¼m NaX laminate
DOI: 10.1038/s41598-017-10518-4
Article source: Figure 3
Adsorbate Carbon Dioxide: InChIKey CURLTUGMZLYLDI-UHFFFAOYSA-N
Kind: experiment
Temperature: 298 K
Tabular data in the source: 0
pressure (bar)	uptake (mmol/g)
0.0004	0.1227
0.00298	0.6797
0.00461	0.9424
0.00462	0.8098
0.00723	1.1256
0.00885	1.3787
0.00919	1.2509
0.01082	1.4631
0.01509	1.6341
0.01706	1.7666
0.06776	2.9003
0.12413	3.5079
0.17788	3.8046
0.22208	3.998
0.27287	4.1863
0.32434	4.3216
0.37712	4.4374
0.42991	4.5219
0.48151	4.5933
0.53335	4.6752
0.58573	4.7342
0.63391	4.7895
0.69048	4.8292
0.7439	4.8919
0.79313	4.9166
0.84394	4.9527
0.89369	5.0003
0.9445	5.0248
0.99949	5.0569
