Adsorption isotherm of Nitrogen on 310 Î¼m NaX laminate
DOI: 10.1038/s41598-017-10518-4
Article source: Figure 3
Adsorbate Nitrogen: InChIKey IJGRMHOSHXDMSA-UHFFFAOYSA-N
Kind: experiment
Temperature: 298 K
Tabular data in the source: 0
pressure (bar)	uptake (mmol/g)
0.0047	0.0188
0.03188	0.0326
0.05599	0.0377
0.06721	0.0463
0.08717	0.0515
0.10795	0.0749
0.12874	0.0862
0.14703	0.0884
0.16657	0.0845
0.18736	0.0927
0.20689	0.104
0.22602	0.1184
0.24514	0.1327
0.26551	0.1288
0.28255	0.1341
0.30417	0.1454
0.3262	0.1566
0.34533	0.174
0.36279	0.1823
0.3844	0.1874
0.40561	0.1956
0.42307	0.2101
0.44344	0.2122
0.46339	0.2357
0.48293	0.2348
0.50122	0.2462
0.52034	0.2636
0.54071	0.2688
0.56191	0.2769
0.57771	0.2763
0.59933	0.2753
0.62053	0.2957
0.63758	0.2767
0.79098	0.346
0.8338	0.3532
0.98969	0.4163
