Adsorption isotherm of Methane on 310 Î¼m NaX laminate
DOI: 10.1038/s41598-017-10518-4
Article source: Figure 3
Adsorbate Methane: InChIKey VNWKTOKETHGBQD-UHFFFAOYSA-N
Kind: experiment
Temperature: 298 K
Tabular data in the source: 0
pressure (bar)	uptake (mmol/g)
0.0047	0.0188
0.01954	0.0351
0.06376	0.0572
0.08718	0.0828
0.11391	0.0937
0.14327	0.1261
0.17891	0.1439
0.23071	0.173
0.29538	0.2353
0.3749	0.2752
0.47652	0.3431
0.60513	0.4391
0.76934	0.5353
0.87534	0.6097
0.9826	0.6718
