Adsorption isotherm of Argon on COF-DL229
DOI: 10.1002/chem.201705405
Article source: Figure 2a
Adsorbate Argon: InChIKey XKRFYHLGVUSROY-UHFFFAOYSA-N
Kind: experiment
Temperature: 87 K
Tabular data in the source: 0
pressure (bar)	uptake (cm3(STP)/g)
0	0
0	15.044
0	34.513
0	57.522
0	85.841
0.001013	110.619
0.001013	131.858
0.002027	176.991
0.006079	210.619
0.006079	247.788
0.008106	282.301
0.010133	327.434
0.013172	353.097
0.017225	374.336
0.020265	395.575
0.027358	415.044
0.038503	432.743
0.054716	441.593
0.08106	448.673
0.106391	455.752
0.129696	462.832
0.158067	466.372
0.191504	469.912
0.228994	476.991
0.266485	480.531
0.308028	484.071
0.356664	488.496
0.395168	491.15
0.436711	494.69
0.482307	501.77
0.519797	503.54
0.554248	505.31
0.590725	508.85
0.627202	511.504
0.665705	514.159
0.701169	516.814
0.737646	518.584
0.77007	521.239
0.80452	523.894
0.835931	526.549
0.866329	530.088
0.899766	531.858
0.928137	533.628
0.946376	537.168
0.976773	540.708
0.998051	549.558
1.00109	567.257
0.001013	6.195
0.00304	25.664
0.001013	41.593
0.001013	59.292
0.00304	76.991
0.002027	95.575
0.002027	116.814
0.00304	142.478
0.00304	174.336
0.006079	204.425
0.007093	239.823
0.008106	273.451
0.009119	310.619
0.010133	340.708
0.013172	354.867
0.017225	367.257
0.022291	386.726
0.027358	404.425
0.034451	423.894
0.045596	438.053
0.068901	450.442
0.090179	455.752
0.113484	461.947
0.134762	466.372
0.161107	470.796
0.187451	475.221
0.218862	480.531
0.250273	484.071
0.28067	488.496
0.313094	492.035
0.349571	495.575
0.386048	498.23
0.418472	501.77
0.455962	505.31
0.503585	508.85
0.538036	510.619
0.568433	514.159
0.605923	515.929
0.646454	521.239
0.481294	507.08
0.677864	523.009
0.712315	526.549
0.744739	528.319
0.774123	531.858
0.80756	535.398
0.831878	535.398
0.862276	537.168
0.889633	540.708
0.915978	542.478
0.944349	546.018
0.971707	551.327
0.999065	570.796
