Adsorption isotherm of Nitrogen on COF-DL229
DOI: 10.1002/chem.201705405
Article source: Figure S21
Adsorbate Nitrogen: InChIKey IJGRMHOSHXDMSA-UHFFFAOYSA-N
Kind: experiment
Temperature: 77 K
Tabular data in the source: 0
pressure (bar)	uptake (cm3(STP)/g)
0	0
0	20
0	40
0	55
0	115
0	170
0	195
0	212.5
0	227.5
0.00304	292.5
0.00304	327.5
0.007093	347.5
0.010133	365
0.027358	392.5
0.051676	407.5
0.075994	417.5
0.103351	425
0.126656	430
0.150974	432.5
0.175292	437.5
0.20265	440
0.230008	442.5
0.254326	445
0.281684	450
0.306001	452.5
0.333359	455
0.357677	460
0.385035	462.5
0.4053	462.5
0.429618	465
0.456976	467.5
0.481294	470
0.508652	472.5
0.531956	475
0.556274	477.5
0.583632	480
0.60795	482.5
0.635308	485
0.662666	487.5
0.686984	490
0.711301	495
0.734606	497.5
0.762977	500
0.786282	502.5
0.8106	502.5
0.837958	505
0.862276	507.5
0.886594	510
0.913952	510
0.937256	515
0.965627	520
0.988932	527.5
1.01325	555
0.024318	392.683
0.051676	409.756
0.079033	417.073
0.103351	424.39
0.126656	429.268
0.155027	434.146
0.178332	436.585
0.20265	441.463
0.230008	446.341
0.254326	448.78
0.278644	451.22
0.306001	453.659
0.329306	456.098
0.357677	458.537
0.380982	460.976
0.4053	463.415
0.432658	465.854
0.456976	468.293
0.481294	470.732
0.504598	475.61
0.531956	478.049
0.560327	478.049
0.583632	482.927
0.60795	482.927
0.635308	485.366
0.659626	487.805
0.686984	490.244
0.711301	492.683
0.734606	495.122
0.762977	497.561
0.786282	500
0.8106	502.439
0.837958	502.439
0.862276	504.878
0.889633	507.317
0.913952	512.195
0.937256	514.634
0.965627	514.634
0.988932	519.512
1.01325	543.902
