Adsorption isotherm of Toluene on [Cu(2-pySO3)2-(bpy)]*H2O
DOI: 10.1021/Ic800050u
Adsorbate Toluene: InChIKey YXFVVABEGXRONW-UHFFFAOYSA-N
Temperature: 313 K
Tabular data in the source: 0
pressure (bar)	uptake (mg/g)
0.00164258	0.624214
0.0272056	6.96035
0.0449031	11.1116
0.080298	12.4225
0.115693	14.1704
0.174685	14.1704
0.300533	15.4814
0.414584	15.4814
0.593525	17.4477
0.774432	18.3217
