Adsorption isotherm of Benzene on [Cu(2-pySO3)2-(bpy)]*H2O
DOI: 10.1021/Ic800050u
Adsorbate Benzene: InChIKey UHOVQNZJYSORNB-UHFFFAOYSA-N
Temperature: 313 K
Tabular data in the source: 0
pressure (bar)	uptake (mg/g)
-0.000324	-0.0312485
0.0429367	7.17884
0.0842308	11.9856
0.113727	15.9183
0.180584	22.036
0.241542	28.5906
0.294634	34.0528
0.50897	46.0696
0.593525	49.5654
0.707575	53.2797
