Adsorption isotherm of Methanol on [Cu(2-pySO3)2-(bpy)]*H2O
DOI: 10.1021/Ic800050u
Adsorbate Methanol: InChIKey OKKJLVBELUTLKV-UHFFFAOYSA-N
Temperature: 313 K
Tabular data in the source: 0
pressure (bar)	uptake (mg/g)
0.00164258	31.4309
0.00557535	48.036
0.0272056	68.7923
0.0370375	72.9435
0.0586678	77.3133
0.0822644	80.8091
0.115693	83.8679
0.176651	87.5822
0.292668	91.2965
0.888483	98.9435
