Adsorption isotherm of Methane on Cr-MIL-101_urea
DOI: 10.1039/C2dt30672g
Adsorbate Methane: InChIKey VNWKTOKETHGBQD-UHFFFAOYSA-N
Temperature: 298 K
Tabular data in the source: 0
pressure (bar)	uptake (cm3(STP)/g)
0.0218688	0.232522
0.0397614	0.28453
0.0616302	0.388186
0.0795229	0.517513
0.105368	0.724365
0.250497	2.09408
0.304175	2.43052
0.349901	2.92139
0.405567	3.30942
0.45328	3.67148
0.50497	4.1625
0.552684	4.67919
0.604374	5.04135
0.654076	5.50655
0.701789	5.84283
0.751491	6.20494
0.805169	6.48982
0.850895	6.82605
0.902584	7.21398
0.954274	7.57614
1.00398	7.78361
