Adsorption isotherm of Methane on Cr-MIL-101_amide
DOI: 10.1039/C2dt30672g
Adsorbate Methane: InChIKey VNWKTOKETHGBQD-UHFFFAOYSA-N
Temperature: 298 K
Tabular data in the source: 0
pressure (bar)	uptake (cm3(STP)/g)
0.0412574	0.33058
0.10609	0.992192
0.163065	1.44992
0.206287	1.75494
0.255403	2.16185
0.304519	2.69631
0.359528	3.10307
0.40668	3.53554
0.45776	3.9424
0.502947	4.37492
0.550098	4.90944
0.601179	5.26528
0.650295	5.72321
0.705305	6.18099
0.752456	6.63897
0.799607	7.17348
0.852652	7.55478
0.899804	7.96174
0.952849	8.4961
1	8.92857
