Adsorption isotherm of Methane on Cr-MIL-101_amide
DOI: 10.1039/C2dt30672g
Adsorbate Methane: InChIKey VNWKTOKETHGBQD-UHFFFAOYSA-N
Temperature: 298 K
Tabular data in the source: 0
pressure (bar)	uptake (cm3(STP)/g)
0.021611	0.280061
0.0412574	0.35609
0.0609037	0.636201
0.0805501	0.686721
0.100196	0.941322
0.163065	1.34788
0.214145	1.70372
0.263261	2.13614
0.312377	2.51754
0.363458	2.74583
0.408644	3.07631
0.453831	3.30475
0.504912	3.6861
0.552063	4.09306
0.603143	4.39788
0.656189	4.72816
0.705305	5.00752
0.75442	5.26137
0.803536	5.66828
0.850688	5.92218
0.901768	6.227
0.950884	6.53187
1.00196	6.78566
