Adsorption isotherm of Nitrogen on Cr-MIL-101-NO2
DOI: 10.1039/C2dt30672g
Adsorbate Nitrogen: InChIKey IJGRMHOSHXDMSA-UHFFFAOYSA-N
Temperature: 77 K
Tabular data in the source: 0
pressure (bar)	uptake (cm3(STP)/g)
0.00241672	117.791
0.00725015	224.54
0.0241672	287.117
0.0362507	312.883
0.0459176	331.288
0.0628346	353.374
0.0797516	375.46
0.103919	419.632
0.157087	471.166
0.186087	485.89
0.200587	507.975
0.241672	533.742
0.314173	548.466
0.364924	552.147
0.403592	559.509
0.459176	563.19
0.509927	570.552
0.531678	574.233
0.606596	581.595
0.657347	588.957
0.700848	596.319
0.749182	607.362
0.799933	614.724
0.841017	625.767
0.906269	655.215
0.932853	706.748
0.954603	846.626
0.95702	960.736
0.96427	1030.67
