Adsorption isotherm of Nitrogen on Cr-MIL-101_urea
DOI: 10.1039/C2dt30672g
Adsorbate Nitrogen: InChIKey IJGRMHOSHXDMSA-UHFFFAOYSA-N
Temperature: 77 K
Tabular data in the source: 0
pressure (bar)	uptake (cm3(STP)/g)
0.00604116	181.818
0.0370021	213.636
0.0538918	231.818
0.0848102	245.455
0.14101	263.636
0.188775	277.273
0.214068	286.364
0.244954	286.364
0.287072	286.364
0.334816	290.909
0.365703	290.909
0.396589	290.909
0.438718	295.455
0.483643	295.455
0.531377	295.455
0.598776	300
0.646531	309.091
0.677418	309.091
0.725151	309.091
0.756059	318.182
0.812216	318.182
0.84874	327.273
0.896484	331.818
0.93021	345.455
0.964022	395.455
