Adsorption isotherm of Methane on Cr-MIL-101_amide
DOI: 10.1039/C2dt30672g
Adsorbate Methane: InChIKey VNWKTOKETHGBQD-UHFFFAOYSA-N
Temperature: 298 K
Tabular data in the source: 0
pressure (bar)	uptake (cm3(STP)/g)
0.0628684	0.534111
0.0785855	0.63575
0.100196	0.78826
0.45776	3.33016
0.508841	3.71151
0.557957	4.09291
0.607073	4.39778
0.701375	5.13517
0.752456	5.61856
0.803536	6.12746
0.850688	6.53442
0.901768	6.9923
0.954813	7.47564
1.00196	7.95913
