Adsorption isotherm of Methane on Cr-MIL-101_urea
DOI: 10.1039/C2dt30672g
Adsorbate Methane: InChIKey VNWKTOKETHGBQD-UHFFFAOYSA-N
Temperature: 298 K
Tabular data in the source: 0
pressure (bar)	uptake (cm3(STP)/g)
0.083499	0.543389
0.0994036	0.698438
0.143141	1.11194
0.200795	1.62889
0.353877	3.07613
0.40159	3.48973
0.45328	3.92921
0.502982	4.36863
0.554672	4.70502
0.606362	4.96408
0.654076	5.1715
0.703777	5.71401
0.751491	5.84411
0.803181	6.0774
0.850895	6.33636
0.904573	6.49239
0.952286	6.77712
1.00199	6.72686
