Adsorption isotherm of Nitrogen on Cr-MIL-101_amide
DOI: 10.1039/C2dt30672g
Adsorbate Nitrogen: InChIKey IJGRMHOSHXDMSA-UHFFFAOYSA-N
Temperature: 77 K
Tabular data in the source: 0
pressure (bar)	uptake (cm3(STP)/g)
0.00874283	158.694
0.0282055	190.361
0.0531709	210.1
0.083661	225.849
0.111372	237.64
0.144597	241.473
0.191683	253.185
0.249808	252.948
0.288568	256.758
0.31349	260.624
0.324561	260.579
0.363322	264.389
0.410364	260.229
0.435296	268.063
0.479593	271.851
0.529414	271.647
0.58477	271.421
0.634602	275.186
0.670606	282.975
0.701063	286.819
0.728731	282.738
0.748116	286.627
0.797948	290.392
0.85057	302.081
0.87547	298.011
0.905971	317.728
0.919832	325.608
0.9589	440.528
0.961822	496.071
0.96471	539.71
