Adsorption isotherm of Nitrogen on Cr-MIL-101_urea
DOI: 10.1039/C2dt30672g
Adsorbate Nitrogen: InChIKey IJGRMHOSHXDMSA-UHFFFAOYSA-N
Temperature: 77 K
Tabular data in the source: 0
pressure (bar)	uptake (cm3(STP)/g)
0.00597734	154.545
0.0200698	177.273
0.0538067	195.455
0.10722	222.727
0.143754	236.364
0.194317	245.455
0.239243	245.455
0.289795	250
0.345963	254.545
0.396515	259.091
0.444248	259.091
0.489185	263.636
0.525687	263.636
0.550958	263.636
0.57625	272.727
0.612731	263.636
0.64082	268.182
0.685767	277.273
0.722269	277.273
0.755963	277.273
0.798103	286.364
0.854271	290.909
0.88236	295.455
0.91046	304.545
0.961161	372.727
