Adsorption isotherm of Methane on Cr-MIL-101_amide
DOI: 10.1039/C2dt30672g
Adsorbate Methane: InChIKey VNWKTOKETHGBQD-UHFFFAOYSA-N
Temperature: 298 K
Tabular data in the source: 0
pressure (bar)	uptake (cm3(STP)/g)
0.0609037	0.48314
0.0825147	0.482589
0.100196	0.73724
0.153242	1.14405
0.210216	1.52525
0.253438	1.9068
0.310413	2.31351
0.35167	2.56756
0.40275	2.87238
0.453831	3.27924
0.502947	3.58411
0.603143	4.42339
0.654224	4.7027
0.701375	5.10966
0.75442	5.56749
0.803536	5.99991
0.852652	6.43233
0.901768	6.83924
0.950884	7.24615
1.00393	7.65296
