Adsorption isotherm of Methane on Cr-MIL-101_urea
DOI: 10.1039/C2dt30672g
Adsorbate Methane: InChIKey VNWKTOKETHGBQD-UHFFFAOYSA-N
Temperature: 298 K
Tabular data in the source: 0
pressure (bar)	uptake (cm3(STP)/g)
0.101392	0.956221
0.254473	2.24883
0.302187	2.55933
0.351889	2.97299
0.50497	3.95631
0.552684	4.06064
0.604374	4.3197
0.654076	4.63026
0.703777	4.83773
0.751491	4.9936
0.801193	5.0722
0.854871	5.20245
0.902584	5.25522
0.954274	5.35965
1.00199	5.28356
