Adsorption isotherm of Nitrogen on Cr-MIL-101_urea
DOI: 10.1039/C2dt30672g
Adsorbate Nitrogen: InChIKey IJGRMHOSHXDMSA-UHFFFAOYSA-N
Temperature: 77 K
Tabular data in the source: 0
pressure (bar)	uptake (cm3(STP)/g)
0.000244624	104.545
0.00594543	140.909
0.03128	168.182
0.056572	177.273
0.0930955	186.364
0.118419	209.091
0.140893	213.636
0.168982	218.182
0.2111	218.182
0.244805	222.727
0.292549	227.273
0.340283	227.273
0.379604	231.818
0.427348	236.364
0.455416	231.818
0.500352	236.364
0.536865	240.909
0.573367	240.909
0.609859	236.364
0.654806	245.455
0.70255	250
0.739052	250
0.772747	250
0.806462	259.091
0.845783	263.636
0.882296	268.182
0.91883	281.818
0.941335	300
0.955439	327.273
0.963926	354.545
