Adsorption isotherm of Nitrogen on Cr-MIL-101-NH2
DOI: 10.1039/C2dt30672g
Adsorbate Nitrogen: InChIKey IJGRMHOSHXDMSA-UHFFFAOYSA-N
Temperature: 77 K
Tabular data in the source: 0
pressure (bar)	uptake (cm3(STP)/g)
0.00241672	139.877
0.00725015	220.859
0.0145003	294.479
0.0314173	342.331
0.0459176	368.098
0.0604179	393.865
0.0773349	412.27
0.106336	463.804
0.130503	500.613
0.157087	522.699
0.18367	537.423
0.200587	555.828
0.239255	588.957
0.292423	596.319
0.333507	603.681
0.413259	611.043
0.50751	622.086
0.577595	625.767
0.604179	633.129
0.657347	633.129
0.700848	640.491
0.797516	662.577
0.848267	669.939
0.899019	692.025
0.915936	717.791
0.930436	780.368
0.944936	890.798
0.954603	1008.59
