Adsorption isotherm of Methane on Cr-MIL-101_amide
DOI: 10.1039/C2dt30672g
Adsorbate Methane: InChIKey VNWKTOKETHGBQD-UHFFFAOYSA-N
Temperature: 298 K
Tabular data in the source: 0
pressure (bar)	uptake (cm3(STP)/g)
0.0412574	0.27956
0.159136	1.32247
0.206287	1.70392
0.257367	2.11078
0.312377	2.54305
0.410609	3.15279
0.45776	3.4322
0.504912	3.6861
0.552063	3.99102
0.603143	4.14278
0.652259	4.26908
0.705305	4.44629
0.75442	4.5981
0.801572	4.77547
0.854617	5.02922
0.901768	5.07904
0.950884	5.15431
1.00393	5.30602
