Adsorption isotherm of Nitrogen on Cr-MIL-101_amide
DOI: 10.1039/C2dt30672g
Adsorbate Nitrogen: InChIKey IJGRMHOSHXDMSA-UHFFFAOYSA-N
Temperature: 77 K
Tabular data in the source: 0
pressure (bar)	uptake (cm3(STP)/g)
0.0143005	166.608
0.0337522	194.307
0.0531709	210.1
0.0864179	221.869
0.139095	253.4
0.255409	276.735
0.388287	284.128
0.510072	283.631
0.609725	287.192
0.670639	294.88
0.753696	302.477
0.839521	310.063
0.90875	321.685
