Adsorption isotherm of Nitrogen on Cr-MIL-101_amide
DOI: 10.1039/C2dt30672g
Adsorbate Nitrogen: InChIKey IJGRMHOSHXDMSA-UHFFFAOYSA-N
Temperature: 77 K
Tabular data in the source: 0
pressure (bar)	uptake (cm3(STP)/g)
0.00588713	126.96
0.022549	146.733
0.0447356	162.516
0.0724579	178.275
0.102915	182.119
0.122334	197.913
0.147266	205.748
0.172188	209.614
0.205402	209.478
0.238616	209.343
0.282912	213.13
0.329965	212.938
0.379808	220.671
0.421326	220.501
0.462854	224.3
0.518222	228.042
0.576335	223.836
0.634471	227.567
0.692617	235.266
0.723074	239.11
0.75352	238.986
0.789502	238.839
0.836577	246.583
0.903038	258.216
