Adsorption isotherm of Methane on Cr-MIL-101_urea
DOI: 10.1039/C2dt30672g
Adsorbate Methane: InChIKey VNWKTOKETHGBQD-UHFFFAOYSA-N
Temperature: 298 K
Tabular data in the source: 0
pressure (bar)	uptake (cm3(STP)/g)
0.0417495	0.336128
0.0636183	0.594423
0.0815109	0.749523
0.355865	2.94732
0.405567	3.2321
0.45328	3.54261
0.502982	3.77585
0.548708	3.90589
0.600398	4.06187
0.654076	4.32098
0.699801	4.32216
0.755467	4.37514
0.805169	4.4022
0.854871	4.32616
0.900596	4.30156
0.94831	4.17393
1.00199	3.91758
