Adsorption isotherm of Nitrogen on Cr-MIL-101_amide
DOI: 10.1039/C2dt30672g
Adsorbate Nitrogen: InChIKey IJGRMHOSHXDMSA-UHFFFAOYSA-N
Temperature: 77 K
Tabular data in the source: 0
pressure (bar)	uptake (cm3(STP)/g)
0.0029216	55.5436
0.0057773	87.278
0.0224612	114.988
0.0529293	122.8
0.0917119	134.546
0.105551	134.49
0.144345	150.204
0.194177	153.969
0.243987	149.797
0.296597	157.519
0.338115	157.349
0.3824	157.168
0.404554	161.046
0.426685	156.987
0.443303	160.888
0.479296	164.709
0.495903	164.641
0.526349	164.517
0.545735	168.406
0.578938	164.302
0.626002	168.078
0.675823	167.874
0.722887	171.65
0.769941	171.458
0.805944	179.248
0.847462	179.078
0.883477	190.836
0.922281	210.519
0.941733	238.217
0.950212	301.674
0.958647	349.259
0.964315	396.855
