Adsorption isotherm of Methane on Cr-MIL-101_urea
DOI: 10.1039/C2dt30672g
Adsorbate Methane: InChIKey VNWKTOKETHGBQD-UHFFFAOYSA-N
Temperature: 298 K
Tabular data in the source: 0
pressure (bar)	uptake (cm3(STP)/g)
0.0218688	0.12943
0.0397614	0.155664
0.0636183	0.56865
0.0795229	0.646379
0.105368	0.827458
0.15507	1.31843
0.202783	1.78358
0.254473	2.35192
0.302187	2.76552
0.353877	3.23077
0.40159	3.74746
0.455268	4.3674
0.500994	4.72941
0.554672	5.19471
0.602386	5.58254
0.652087	5.99619
0.699801	6.51288
0.753479	6.92664
0.803181	7.39183
0.852883	7.80549
0.902584	8.14182
0.950298	8.8647
1.00398	9.17536
