Adsorption isotherm of Nitrogen on Cr-MIL-101_urea
DOI: 10.1039/C2dt30672g
Adsorbate Nitrogen: InChIKey IJGRMHOSHXDMSA-UHFFFAOYSA-N
Temperature: 77 K
Tabular data in the source: 0
pressure (bar)	uptake (cm3(STP)/g)
0.0117313	213.636
0.0286636	250
0.0427454	268.182
0.0680694	290.909
0.0905748	309.091
0.118685	322.727
0.14118	336.364
0.160867	350
0.205793	350
0.231085	359.091
0.273213	363.636
0.3041	363.636
0.365883	368.182
0.419233	368.182
0.458554	372.727
0.486643	377.273
0.514721	377.273
0.559658	381.818
0.590555	386.364
0.629854	381.818
0.671983	386.364
0.714111	390.909
0.753422	390.909
0.792753	400
0.837689	404.545
0.888263	418.182
0.910747	427.273
0.930423	436.364
0.947355	472.727
0.958693	518.182
0.961639	577.273
0.967404	640.909
