Adsorption isotherm of Nitrogen on [Ni3(bix)3(PTCO)2*(H2O)4.6H2O]n
DOI: 10.1016/j.inoche.2010.01.025
Adsorbate Nitrogen: InChIKey IJGRMHOSHXDMSA-UHFFFAOYSA-N
Temperature: 77 K
Tabular data in the source: 0
pressure (bar)	uptake (cm3(STP)/g)
0.032384	4.06504
0.0582912	6.50407
0.0841984	9.7561
0.10039	10.9756
0.113344	12.1951
0.14249	14.6341
0.16192	16.2602
0.178112	17.4797
0.194304	19.5122
0.236403	22.3577
0.294694	27.6423
0.34327	31.3008
0.391846	34.5528
0.437184	38.6179
0.48576	42.2764
0.534336	46.3415
0.582912	49.5935
0.634726	53.252
0.683302	57.3171
0.72864	60.9756
0.777216	65.0407
0.799885	67.0732
0.82903	68.6992
0.851699	71.5447
0.877606	73.5772
0.900275	76.0163
0.926182	78.0488
0.948851	82.9268
0.965043	87.8049
