Adsorption isotherm of Nitrogen on 22% ZIF-8 In PVP
DOI: 10.1039/C0cc02271c
Adsorbate Nitrogen: InChIKey IJGRMHOSHXDMSA-UHFFFAOYSA-N
Temperature: 77 K
Tabular data in the source: 0
pressure (bar)	uptake (cm3(STP)/g)
1.34e-05	2.72768
1.96e-05	2.00941
3.33e-05	3.08681
6.85e-05	10.6286
0.000102	15.2973
0.000201	39.3591
0.000306	68.8079
0.000395	88.5601
0.000511	101.489
0.000613	109.39
0.000688	115.136
0.000798	116.932
0.000934	122.318
0.00201547	142.789
0.00302239	151.408
0.00400364	156.795
0.00504675	163.26
0.00625728	170.801
0.00708362	175.47
0.00815282	181.216
0.00900334	184.807
0.0106226	187.68
0.0195879	200.25
0.0240863	204.201
0.029132	215.334
0.040553	231.854
0.0502802	236.163
0.0613181	239.036
0.0711595	243.705
0.0889607	246.578
0.104096	250.169
0.129065	255.197
0.178184	261.302
0.228354	270.64
0.3	279.259
0.378163	286.442
0.488663	301.525
0.605876	314.095
0.714842	330.974
0.829571	346.417
0.893666	365.81
0.901087	376.943
0.962714	392.745
0.962714	440.868
