Adsorption isotherm of Nitrogen on 25% ZIF-8 In PS
DOI: 10.1039/C0cc02271c
Adsorbate Nitrogen: InChIKey IJGRMHOSHXDMSA-UHFFFAOYSA-N
Temperature: 77 K
Tabular data in the source: 0
pressure (bar)	uptake (cm3(STP)/g)
1.11e-05	4.52333
2.12e-05	5.95986
3.1e-05	7.39639
4.27e-05	8.83291
5.43e-05	9.91031
6.68e-05	10.9877
8.63e-05	15.2973
0.0001	16.7338
0.000197	36.486
0.000301	61.9844
0.000392	76.7088
0.000498	87.8419
0.000588	93.588
0.000699	100.771
0.000798	103.285
0.000934	105.08
0.0010146	109.749
0.00201547	121.959
0.00302239	128.424
0.00397067	131.656
0.00500519	137.043
0.00625728	144.585
0.00714244	148.176
0.00849698	152.845
0.0097795	156.077
0.0192666	165.055
0.0242863	169.006
0.0298638	177.266
0.0395594	185.885
0.0506977	191.272
0.0723461	197.736
0.103239	203.123
0.152277	210.306
0.201715	217.848
0.265004	222.516
0.331297	229.699
0.424577	239.395
0.500937	247.655
0.621094	260.225
0.738882	274.59
0.829571	287.519
0.916114	302.962
0.931391	319.841
0.946923	353.599
