Adsorption isotherm of Nitrogen on ZIF-8
DOI: 10.1039/C0cc02271c
Adsorbate Nitrogen: InChIKey IJGRMHOSHXDMSA-UHFFFAOYSA-N
Temperature: 77 K
Tabular data in the source: 0
pressure (bar)	uptake (cm3(STP)/g)
2.82e-05	7.03725
3.95e-05	7.75552
6.07e-05	11.706
7.23e-05	15.2973
8.46e-05	17.8112
9.73e-05	20.3251
0.000112934	24.2756
0.000190141	64.4983
0.000294724	115.854
0.000384006	128.783
0.000484055	135.965
0.000580636	142.789
0.000696486	149.613
0.000781972	153.204
0.000870719	157.154
0.000969539	162.9
0.00197432	186.603
0.00286436	197.018
0.00395448	203.482
0.00502617	209.947
0.00583285	224.671
0.00693903	237.6
0.00779071	243.705
0.00881955	248.374
0.0100672	252.683
0.0185637	264.894
0.022827	300.448
0.0287743	311.94
0.0397252	314.454
0.0492539	316.25
0.0626021	316.968
0.0802284	318.404
0.12031	320.918
0.174547	323.791
0.247028	327.383
0.386081	333.488
0.564779	341.389
0.754353	349.29
0.833049	360.782
0.868215	377.302
0.875424	394.181
