Adsorption isotherm of Nitrogen on 56% ZIF-8 In PVP
DOI: 10.1039/C0cc02271c
Adsorbate Nitrogen: InChIKey IJGRMHOSHXDMSA-UHFFFAOYSA-N
Temperature: 77 K
Tabular data in the source: 0
pressure (bar)	uptake (cm3(STP)/g)
2.46e-05	3.08681
3.78e-05	5.95986
4.8e-05	8.11465
8.92e-05	11.706
0.000293	70.2444
0.000399	89.6375
0.000498	97.5384
0.000578	106.517
0.000711	112.622
0.000896	121.6
0.00198241	139.198
0.00302239	146.38
0.00403688	151.767
0.00513091	157.873
0.00615465	163.26
0.00738265	170.083
0.0101923	177.984
0.0186397	186.244
0.0246913	192.708
0.0284182	204.56
0.0408898	217.488
0.0494555	219.643
0.0613181	223.234
0.0760262	225.748
0.0860663	228.981
0.099057	231.495
0.124865	233.29
0.160023	237.959
0.205079	242.268
0.27166	249.451
0.334048	254.12
0.421081	262.739
0.51352	270.64
0.610907	279.977
0.726762	290.751
0.815964	298.652
0.893666	309.785
0.939125	324.51
0.954786	340.671
