Adsorption isotherm of Carbon Dioxide on 100% ZIF-8 Microparticles
DOI: 10.1039/C0cc02271c
Adsorbate Carbon Dioxide: InChIKey CURLTUGMZLYLDI-UHFFFAOYSA-N
Temperature: 298 K
Tabular data in the source: 0
pressure (bar)	uptake (mmol/g)
0.756757	0.498534
1.08108	0.733138
1.72973	1.261
2.81081	1.84751
3.45946	2.43402
4.97297	3.51906
5.08108	3.63636
10.0541	5.89443
15.027	7.06745
20	7.65396
25.0811	7.97654
30.0541	8.21114
34.8108	8.3871
39.7838	8.3871
44.6486	8.3871
49.5135	8.35777
