Adsorption isotherm of Carbon Dioxide on 100% ZIF-8 In PVP
DOI: 10.1039/C0cc02271c
Adsorbate Carbon Dioxide: InChIKey CURLTUGMZLYLDI-UHFFFAOYSA-N
Temperature: 298 K
Tabular data in the source: 0
pressure (bar)	uptake (mmol/g)
0.324324	0.205279
0.972973	0.410557
1.51351	0.733138
1.94595	0.938416
3.56757	1.64223
4.86486	2.28739
10.0541	3.81232
14.9189	4.66276
19.8919	5.19062
24.973	5.57185
29.9459	5.83578
34.9189	6.30499
39.7838	6.42229
44.6486	6.56891
49.5135	6.59824
