Adsorption isotherm of Diethyl phthalate, Bisphenol A on Activated Carbon
DOI: 10.1080/01496395.2021.1995426
Article source: Figure 2C
Adsorbate Diethyl phthalate: InChIKey FLKPEMZONWLCSK-UHFFFAOYSA-N
Adsorbate Bisphenol A: InChIKey IISBACLAFKSPIT-UHFFFAOYSA-N
Kind: experiment
Temperature: 303 K
Tabular data in the source: 0
pressure (bar)	Diethyl phthalate fraction	Diethyl phthalate uptake (mol/g)	Bisphenol A fraction	Bisphenol A uptake (mol/g)	total uptake (mol/g)
1.01325	2e-06	0.000232	2e-06	0.000236	
1.01325	4e-06	0.000267	3e-06	0.000279	
1.01325	7e-06	0.000307	5e-06	0.000323	
1.01325	1.7e-05	0.000393	1.3e-05	0.000424	
1.01325	2.4e-05	0.000448	1.8e-05	0.000484	
1.01325	3.4e-05	0.000501	2.6e-05	0.000552	
1.01325	7.7e-05	0.000603	6.1e-05	0.000702	
