Adsorption isotherm of Bisphenol A on Activated Carbon
DOI: 10.1080/01496395.2021.1995426
Article source: Figure 1A
Adsorbate Bisphenol A: InChIKey IISBACLAFKSPIT-UHFFFAOYSA-N
Kind: experiment
Temperature: 303 K
Tabular data in the source: 0
pressure (bar)	uptake (mol/g)
1.01325	0.000269
1.01325	0.000283
1.01325	0.000334
1.01325	0.000379
1.01325	0.000427
1.01325	0.000432
1.01325	0.000466
1.01325	0.000502
1.01325	0.000477
1.01325	0.000547
1.01325	0.000453
1.01325	0.000516
1.01325	0.00054
1.01325	0.000571
1.01325	0.000579
1.01325	0.000605
1.01325	0.000576
1.01325	0.000627
1.01325	0.000634
1.01325	0.000595
1.01325	0.000675
1.01325	0.000657
1.01325	0.000583
1.01325	0.000633
1.01325	0.000737
1.01325	0.000669
1.01325	0.000741
1.01325	0.000734
1.01325	0.000773
1.01325	0.000756
1.01325	0.000806
1.01325	0.000783
1.01325	0.00084
1.01325	0.000845
1.01325	0.001017
1.01325	0.000838
1.01325	0.001047
1.01325	0.000965
1.01325	0.000989
1.01325	0.001089
1.01325	0.001071
