Adsorption isotherm of Diethyl phthalate on Activated Carbon
DOI: 10.1080/01496395.2021.1995426
Article source: Figure 1B
Adsorbate Diethyl phthalate: InChIKey FLKPEMZONWLCSK-UHFFFAOYSA-N
Kind: experiment
Temperature: 303 K
Tabular data in the source: 0
pressure (bar)	uptake (mol/g)
1.01325	0.000159
1.01325	0.000197
1.01325	0.000258
1.01325	0.000279
1.01325	0.000292
1.01325	0.000294
1.01325	0.000313
1.01325	0.000318
1.01325	0.000356
1.01325	0.000356
1.01325	0.000339
1.01325	0.000388
1.01325	0.000401
1.01325	0.000425
1.01325	0.000425
1.01325	0.000479
1.01325	0.000472
1.01325	0.000476
1.01325	0.000519
1.01325	0.000549
1.01325	0.000528
1.01325	0.000612
1.01325	0.000609
1.01325	0.000687
1.01325	0.000635
1.01325	0.000624
1.01325	0.000592
1.01325	0.000545
1.01325	0.000727
1.01325	0.000755
1.01325	0.000824
1.01325	0.000873
1.01325	0.000891
1.01325	0.000734
1.01325	0.000751
1.01325	0.000779
1.01325	0.000788
1.01325	0.000923
1.01325	0.000974
1.01325	0.001013
1.01325	0.000983
1.01325	0.001047
1.01325	0.000923
1.01325	0.001116
1.01325	0.001139
1.01325	0.00121
1.01325	0.00112
