Adsorption isotherm of 2-Propanol, Methyl ethyl ketone on Activated carbon Carbio 12
DOI: 10.1002/aic.12220
Article source: Table 4
Adsorbate 2-Propanol: InChIKey KFZMGEQAYNKOFK-UHFFFAOYSA-N
Adsorbate Methyl ethyl ketone: InChIKey ZWEHNKRNPOVVGH-UHFFFAOYSA-N
Kind: experiment
Temperature: 303 K
Tabular data in the source: 0
pressure (bar)	2-Propanol fraction	2-Propanol uptake (mmol/g)	Methyl ethyl ketone fraction	Methyl ethyl ketone uptake (mmol/g)	total uptake (mmol/g)
0.000436	0.263073	0.117	0.736927	1.516	
0.00077	0.250422	0.292	0.749578	2.115	
0.001379	0.241587	0.348	0.758413	2.113	
