Adsorption isotherm of 2-Propanol, Methyl ethyl ketone on Activated carbon Carbio 12
DOI: 10.1002/aic.12220
Article source: Table 4
Adsorbate 2-Propanol: InChIKey KFZMGEQAYNKOFK-UHFFFAOYSA-N
Adsorbate Methyl ethyl ketone: InChIKey ZWEHNKRNPOVVGH-UHFFFAOYSA-N
Kind: experiment
Temperature: 303 K
Tabular data in the source: 0
pressure (bar)	2-Propanol fraction	2-Propanol uptake (mmol/g)	Methyl ethyl ketone fraction	Methyl ethyl ketone uptake (mmol/g)	total uptake (mmol/g)
0.000396	0.899596	1.597	0.100404	0.489	
0.000783	0.8872	2.135	0.1128	0.664	
0.00119	0.881315	2.42	0.118685	0.709	
0.001452	0.871496	2.479	0.128504	0.712	
