Adsorption isotherm of 2-Propanol, Methyl ethyl ketone on Activated carbon Carbio 12
DOI: 10.1002/aic.12220
Article source: Table 4
Adsorbate 2-Propanol: InChIKey KFZMGEQAYNKOFK-UHFFFAOYSA-N
Adsorbate Methyl ethyl ketone: InChIKey ZWEHNKRNPOVVGH-UHFFFAOYSA-N
Kind: experiment
Temperature: 303 K
Tabular data in the source: 0
pressure (bar)	2-Propanol fraction	2-Propanol uptake (mmol/g)	Methyl ethyl ketone fraction	Methyl ethyl ketone uptake (mmol/g)	total uptake (mmol/g)
0.000167	0.711803	0.592	0.288197	0.818	
0.000345	0.67402	0.822	0.32598	1.118	
0.000595	0.652649	1.109	0.347351	1.453	
0.000861	0.64172	1.137	0.35828	1.421	
0.001087	0.643258	1.342	0.356742	1.651	
