Adsorption isotherm of 2-Propanol on Activated carbon Carbio 12
DOI: 10.1002/aic.12220
Article source: Figure 3
Adsorbate 2-Propanol: InChIKey KFZMGEQAYNKOFK-UHFFFAOYSA-N
Kind: experiment
Temperature: 303 K
Tabular data in the source: 0
pressure (bar)	uptake (mol/g)
7.7e-05	0.000771
9.6e-05	0.00105
0.000183	0.0013
0.000327	0.00175
0.000298	0.00187
0.000452	0.00228
0.000692	0.00287
0.000779	0.00291
0.000788	0.00281
0.00099	0.00315
0.0011	0.00332
0.00114	0.00328
0.0012	0.00332
0.00152	0.00339
0.00196	0.00345
0.00225	0.00353
0.00254	0.00359
0.00283	0.00359
0.00305	0.0036
0.00327	0.0037
0.00414	0.00373
