Adsorption isotherm of 2-Propanol, Methyl ethyl ketone on Activated carbon Carbio 12
DOI: 10.1002/aic.12220
Article source: Table 4
Adsorbate 2-Propanol: InChIKey KFZMGEQAYNKOFK-UHFFFAOYSA-N
Adsorbate Methyl ethyl ketone: InChIKey ZWEHNKRNPOVVGH-UHFFFAOYSA-N
Kind: experiment
Temperature: 303 K
Tabular data in the source: 0
pressure (bar)	2-Propanol fraction	2-Propanol uptake (mmol/g)	Methyl ethyl ketone fraction	Methyl ethyl ketone uptake (mmol/g)	total uptake (mmol/g)
0.000529	0.853525	1.393	0.146475	0.447	
0.001046	0.856119	2.018	0.143881	0.581	
0.001593	0.85934	2.369	0.14066	0.751	
0.002167	0.854684	2.58	0.145316	0.772	
