Adsorption isotherm of 2-Propanol, Methyl ethyl ketone on Activated carbon Carbio 12
DOI: 10.1002/aic.12220
Article source: Table 4
Adsorbate 2-Propanol: InChIKey KFZMGEQAYNKOFK-UHFFFAOYSA-N
Adsorbate Methyl ethyl ketone: InChIKey ZWEHNKRNPOVVGH-UHFFFAOYSA-N
Kind: experiment
Temperature: 303 K
Tabular data in the source: 0
pressure (bar)	2-Propanol fraction	2-Propanol uptake (mmol/g)	Methyl ethyl ketone fraction	Methyl ethyl ketone uptake (mmol/g)	total uptake (mmol/g)
0.000167	0.313514	0.173	0.686486	1.313	
0.00044	0.277437	0.245	0.722563	1.915	
0.000742	0.259879	0.31	0.740121	2.249	
0.001116	0.24086	0.328	0.75914	2.297	
0.001387	0.236558	0.342	0.763442	2.278	
