Adsorption isotherm of Methyl ethyl ketone on Activated carbon Carbio 12
DOI: 10.1002/aic.12220
Article source: Figure 2
Adsorbate Methyl ethyl ketone: InChIKey ZWEHNKRNPOVVGH-UHFFFAOYSA-N
Kind: experiment
Temperature: 303 K
Tabular data in the source: 0
pressure (bar)	uptake (mol/g)
0.000133	0.00135
0.000244	0.0019
0.000354	0.00232
0.00062	0.00282
0.000775	0.00291
0.000803	0.00292
0.00136	0.00305
0.00195	0.00316
0.00254	0.00317
