Adsorption isotherm of Ethanol on C40H84Cu10N24O50
DOI: 10.1002/ejic.201100790
Adsorbate Ethanol: InChIKey LFQSCWFLJHTTHZ-UHFFFAOYSA-N
Temperature: 293 K
Tabular data in the source: 0
pressure (bar)	uptake (cm3(STP)/g)
0.000763264	0.00239551
0.00139932	0.00787748
0.00521564	0.00922645
0.00979522	0.0119424
0.0125939	0.0129545
0.0184456	0.0170343
0.0231523	0.0252352
0.0256966	0.0269345
0.0298945	0.0299955
0.0319299	0.0447264
0.0358734	0.0453889
0.0385448	0.0498303
0.0423612	0.0539221
0.045287	0.0545906
0.0491033	0.0566253
0.0503754	0.0651893
0.0547006	0.0723638
0.0568632	0.0888082
0.0582625	0.0973714
