Adsorption isotherm of N-Hexane on C20H44Cu5N12O26
DOI: 10.1002/ejic.201100790
Adsorbate N-Hexane: InChIKey VLKZOEOYAKHREP-UHFFFAOYSA-N
Temperature: 293 K
Tabular data in the source: 0
pressure (bar)	uptake (cm3(STP)/g)
0.00593788	0.00282132
0.0115265	0.00282132
0.0174643	0.00376176
0.0265458	0.00376176
0.030388	0.00282132
0.0422637	0.00376176
0.0583309	0.00376176
0.0709052	0.00282132
0.082781	0.00376176
0.0922117	0.00658307
0.101642	0.00564263
0.106183	0.00564263
0.11771	0.00470219
0.125045	0.00658307
0.128538	0.00658307
0.13692	0.00940439
0.140413	0.00940439
0.144605	0.0112853
0.153686	0.0206897
