Adsorption isotherm of Ethanol on C20H44Cu5N12O26
DOI: 10.1002/ejic.201100790
Adsorbate Ethanol: InChIKey LFQSCWFLJHTTHZ-UHFFFAOYSA-N
Temperature: 293 K
Tabular data in the source: 0
pressure (bar)	uptake (cm3(STP)/g)
0.000763264	0.00342408
0.00152653	0.00821959
0.00534285	0.00785427
0.00992243	0.0088559
0.0125939	0.00986875
0.0184456	0.0122343
0.0232796	0.0197487
0.0256966	0.0207631
0.0298945	0.0241669
0.0318027	0.0310129
0.0358734	0.0316746
0.0385448	0.033716
0.0424884	0.0374643
0.0454142	0.0371042
0.0489761	0.0381118
0.0502482	0.04359
0.0547006	0.0469924
0.0568632	0.0572654
0.0581353	0.0620579
