Adsorption isotherm of Methanol on C20H44Cu5N12O26
DOI: 10.1002/ejic.201100790
Adsorbate Methanol: InChIKey OKKJLVBELUTLKV-UHFFFAOYSA-N
Temperature: 293 K
Tabular data in the source: 0
pressure (bar)	uptake (cm3(STP)/g)
0.0022249	0.000518324
0.00528469	0.00154949
0.00863577	0.0102251
0.0161454	0.0122929
0.0242048	0.010796
0.035602	0.0103314
0.0514605	0.0175277
0.0678643	0.0186115
0.0814944	0.0232512
0.100133	0.0304584
0.112524	0.122227
0.116725	0.140078
0.125648	0.1554
