Adsorption isotherm of N-Hexane on C40H84Cu10N24O50
DOI: 10.1002/ejic.201100790
Adsorbate N-Hexane: InChIKey VLKZOEOYAKHREP-UHFFFAOYSA-N
Temperature: 293 K
Tabular data in the source: 0
pressure (bar)	uptake (cm3(STP)/g)
0.00489002	0.00376176
0.0111772	0.00658307
0.0174643	0.00658307
0.0265458	0.00752351
0.0296894	0.00752351
0.0440101	0.00846395
0.0579816	0.00940439
0.0705559	0.0103448
0.082781	0.0131661
0.102341	0.0188088
0.117011	0.0225705
0.128538	0.0319749
0.141112	0.0479624
0.143208	0.0564263
0.14705	0.142006
0.149844	0.211599
0.153337	0.293417
