Adsorption isotherm of Methanol on C40H84Cu10N24O50
DOI: 10.1002/ejic.201100790
Adsorbate Methanol: InChIKey OKKJLVBELUTLKV-UHFFFAOYSA-N
Temperature: 293 K
Tabular data in the source: 0
pressure (bar)	uptake (cm3(STP)/g)
0.0025029	0.00051942
0.00500669	0.0015484
0.00920328	0.0168516
0.0158753	0.0168779
0.0242172	0.0179299
0.0356179	0.0195035
0.0512099	0.0333229
0.0681733	0.0364471
0.0818335	0.0584117
0.0999585	0.0900755
0.112577	0.1528
0.117878	0.163522
0.12205	0.164558
0.125665	0.165081
