Adsorption isotherm of Oxygen on FMOF-1
DOI: 10.1021/Ja0775265
Adsorbate Oxygen: InChIKey MYMOFIZGZYHOMD-UHFFFAOYSA-N
Temperature: 77 K
Tabular data in the source: 0
pressure (bar)	uptake (g/l)
2.43839e-06	3.49854
3.18202e-06	6.99708
3.83347e-06	10.4956
4.49814e-06	10.4956
5.27731e-06	12.2449
7.06842e-06	22.7405
8.07463e-06	24.4898
1.05308e-05	34.9854
1.48748e-05	47.2303
1.9911e-05	64.723
2.46044e-05	82.2157
2.95905e-05	104.956
3.19884e-05	127.697
3.3687e-05	145.19
3.54824e-05	160.933
3.83639e-05	181.924
4.37706e-05	197.668
4.99554e-05	209.913
5.55051e-05	223.907
6.33582e-05	234.402
7.23107e-05	246.647
8.48228e-05	250.146
9.9438e-05	260.641
0.000116553	272.886
0.000126038	292.128
0.000129001	330.612
0.00013199	372.595
0.000138246	451.312
0.000138699	414.577
0.000141583	482.799
0.000149012	507.289
0.000152895	517.784
0.000174579	524.781
0.00021593	531.778
0.000267198	533.528
0.000313287	542.274
0.000519496	549.271
0.000838634	558.017
0.00124984	566.764
0.0017665	572.012
0.00372145	584.257
0.00650777	593.003
0.00872334	594.752
0.0102328	598.251
0.0152568	601.749
0.0215705	603.499
0.0289094	606.997
