Adsorption isotherm of Hydrogen on FMOF-1
DOI: 10.1021/Ja0775265
Adsorbate Hydrogen: InChIKey UFHFLCQGNIYNRP-UHFFFAOYSA-N
Temperature: 77 K
Tabular data in the source: 0
pressure (bar)	uptake (g/l)
1.30398	6.32746
4.3958	12.2729
7.95171	15.0532
12.8476	17.7053
16.8577	19.0926
21.5368	20.6056
26.8346	31.2319
39.5452	33.4942
52.7037	35.5029
63.8341	40.9319
73.4324	40.9197
79.6859	40.2789
85.7135	40.1447
93.3007	40.5148
100.665	40.8852
