Adsorption isotherm of Nitrogen on FMOF-1
DOI: 10.1021/Ja0775265
Adsorbate Nitrogen: InChIKey IJGRMHOSHXDMSA-UHFFFAOYSA-N
Temperature: 77 K
Tabular data in the source: 0
pressure (bar)	uptake (g/l)
1.41001e-05	6.99708
2.89276e-05	17.4927
4.08669e-05	27.9883
5.47623e-05	33.2362
7.14417e-05	40.2332
8.83368e-05	50.7289
0.000103574	59.4752
0.000118245	68.2216
0.000150156	78.7172
0.000176028	89.2128
0.000190503	99.7085
0.000217421	111.953
0.000248177	122.449
0.00027597	127.697
0.000314914	141.691
0.000369226	150.437
0.000421659	155.685
0.000549923	166.181
0.000736447	178.426
0.00109752	187.172
0.00172573	192.42
0.00202307	202.915
0.00236762	232.653
0.00237089	216.91
0.00249259	253.644
0.00261639	307.872
0.00262211	283.382
0.00268078	334.111
0.00282145	358.601
0.00297079	377.843
0.00339212	384.84
0.00442468	393.586
0.00592914	398.834
0.00794386	405.831
0.0112277	411.079
0.0146498	416.327
0.0196341	419.825
0.022426	423.324
0.0308625	428.571
0.0392222	430.321
0.0511849	433.819
0.0616725	435.569
0.0763048	439.067
0.0895203	440.816
0.105028	442.566
0.129966	444.315
0.169577	449.563
0.209842	451.312
0.266639	454.81
0.338862	456.56
0.430647	458.309
0.608765	461.808
0.838183	461.808
0.931601	472.303
