Adsorption isotherm of Hydrogen on COF-6
DOI: 10.1016/j.micromeso.2010.04.015
Adsorbate Hydrogen: InChIKey UFHFLCQGNIYNRP-UHFFFAOYSA-N
Temperature: 77 K
Tabular data in the source: 0
pressure (bar)	uptake (wt%)
5.42621	1.59932
11.1069	2.05814
20.0649	2.37932
30.3338	2.56285
39.9472	2.60873
51.0901	2.65461
60.2665	2.7005
70.0985	2.74638
80.3674	2.7005
90.4178	2.79226
99.5943	2.79226
