Adsorption isotherm of Hydrogen on COF-1
DOI: 10.1016/j.micromeso.2010.04.015
Adsorbate Hydrogen: InChIKey UFHFLCQGNIYNRP-UHFFFAOYSA-N
Temperature: 77 K
Tabular data in the source: 0
pressure (bar)	uptake (mg/g)
0.837971	1.3671
1.05646	0.25281
2.1489	16.5083
5.64469	20.8999
11.1069	23.2595
21.3758	25.5536
30.5523	26.4713
40.8212	27.7167
50.8716	28.1755
60.7035	28.4377
70.317	28.241
80.3674	28.4377
91.0733	28.831
