Adsorption isotherm of Hydrogen on COF-1
DOI: 10.1016/j.micromeso.2010.04.015
Adsorbate Hydrogen: InChIKey UFHFLCQGNIYNRP-UHFFFAOYSA-N
Temperature: 298 K
Tabular data in the source: 0
pressure (bar)	uptake (mg/g)
0.400996	0.00393501
4.77074	0.0265485
10.2329	0.0471955
20.0649	0.0875064
30.1153	0.127817
40.3842	0.163212
50.2161	0.200574
59.8296	0.234002
70.0985	0.266448
80.1489	0.295943
89.9808	0.323473
100.031	0.352969
