Adsorption isotherm of Hydrogen on COF-8
DOI: 10.1016/j.micromeso.2010.04.015
Adsorbate Hydrogen: InChIKey UFHFLCQGNIYNRP-UHFFFAOYSA-N
Temperature: 298 K
Tabular data in the source: 0
pressure (bar)	uptake (wt%)
5.46341	0.0391545
9.83316	0.075569
20.0292	0.162964
30.2253	0.221227
40.4214	0.308622
50.9088	0.374168
59.6483	0.4033
70.864	0.512544
80.6231	0.570807
90.0909	0.636353
99.9956	0.658202
