Adsorption isotherm of Hydrogen on COF-202
DOI: 10.1016/j.micromeso.2010.04.015
Adsorbate Hydrogen: InChIKey UFHFLCQGNIYNRP-UHFFFAOYSA-N
Temperature: 77 K
Tabular data in the source: 0
pressure (bar)	uptake (wt%)
0.619484	0.0393202
1.49343	1.96638
5.20772	4.30638
10.4514	5.63697
20.9388	6.82991
30.5523	7.24285
40.8212	7.65579
60.7035	8.11461
70.9724	8.25226
80.5859	8.29814
89.9808	8.29814
99.8128	8.48167
