Adsorption isotherm of Hydrogen on COF-102
DOI: 10.1016/j.micromeso.2010.04.015
Adsorbate Hydrogen: InChIKey UFHFLCQGNIYNRP-UHFFFAOYSA-N
Temperature: 77 K
Tabular data in the source: 0
pressure (bar)	uptake (wt%)
0.194094	0.260758
0.294598	0.371313
0.408212	0.515514
0.499976	0.630876
0.593926	0.74143
0.696615	0.847178
0.805859	0.967346
0.901993	1.07309
1.0025	1.16923
