Adsorption isotherm of Hydrogen on COF-1
DOI: 10.1016/j.micromeso.2010.04.015
Adsorbate Hydrogen: InChIKey UFHFLCQGNIYNRP-UHFFFAOYSA-N
Temperature: 77 K
Tabular data in the source: 0
pressure (bar)	uptake (mg/g)
0.837971	-0.00937456
1.05646	5.29987
1.27495	10.4125
1.93041	11.92
5.20772	15.2629
11.1069	17.0982
20.9388	18.6713
30.9892	19.3268
40.3842	20.2444
50.6531	20.441
60.0481	20.7032
70.317	20.5721
80.1489	20.8343
89.7623	21.031
