Adsorption isotherm of Hydrogen on COF-1
DOI: 10.1016/j.micromeso.2010.04.015
Adsorbate Hydrogen: InChIKey UFHFLCQGNIYNRP-UHFFFAOYSA-N
Temperature: 298 K
Tabular data in the source: 0
pressure (bar)	uptake (mg/g)
6.30016	0.0186829
20.9388	0.0678426
40.1657	0.116019
57.2077	0.158296
69.006	0.188775
83.8632	0.22712
91.0733	0.283162
97.6279	0.300859
