Adsorption isotherm of Hydrogen on COF-103
DOI: 10.1016/j.micromeso.2010.04.015
Adsorbate Hydrogen: InChIKey UFHFLCQGNIYNRP-UHFFFAOYSA-N
Temperature: 77 K
Tabular data in the source: 0
pressure (bar)	uptake (wt%)
0.00837971	0.0252285
0.102329	0.203077
0.202833	0.40496
0.298968	0.592422
0.397287	0.784691
0.497791	0.972153
0.60485	1.15962
0.6988	1.33266
0.801489	1.51531
0.899808	1.67874
0.998128	1.85178
