Adsorption isotherm of Hydrogen on COF-10
DOI: 10.1016/j.micromeso.2010.04.015
Adsorbate Hydrogen: InChIKey UFHFLCQGNIYNRP-UHFFFAOYSA-N
Temperature: 77 K
Tabular data in the source: 0
pressure (bar)	uptake (mg/g)
0.182509	-0.196191
4.55226	19.0744
9.79595	26.7433
19.8464	36.5752
30.1153	44.2441
40.1657	49.5534
50.2161	53.6828
60.2665	57.4189
70.0985	61.1551
80.8044	64.4979
90.6363	66.8576
