Adsorption isotherm of Hydrogen on COF-5
DOI: 10.1016/j.micromeso.2010.04.015
Adsorbate Hydrogen: InChIKey UFHFLCQGNIYNRP-UHFFFAOYSA-N
Temperature: 77 K
Tabular data in the source: 0
pressure (bar)	uptake (mg/g)
1.73689	7.17884
5.34194	18.1032
10.8697	25.5318
20.4831	33.6158
31.0579	39.078
40.9117	43.4477
51.4865	46.7251
59.8982	49.3469
70.7134	51.9688
79.8461	55.0276
90.1806	56.7755
