Adsorption isotherm of Hydrogen on COF-8
DOI: 10.1016/j.micromeso.2010.04.015
Adsorbate Hydrogen: InChIKey UFHFLCQGNIYNRP-UHFFFAOYSA-N
Temperature: 77 K
Tabular data in the source: 0
pressure (bar)	uptake (wt%)
0.0183915	0.00224687
0.100324	0.0441964
0.199736	0.104499
0.30024	0.143827
0.400744	0.198886
0.500156	0.238213
