Adsorption isotherm of Hydrogen on COF-5
DOI: 10.1016/j.micromeso.2010.04.015
Adsorbate Hydrogen: InChIKey UFHFLCQGNIYNRP-UHFFFAOYSA-N
Temperature: 77 K
Tabular data in the source: 0
pressure (bar)	uptake (wt%)
0.0129294	-0.000375
0.102509	0.0258435
0.201921	0.0573057
0.30024	0.0835242
0.400744	0.12023
0.492509	0.16218
