Adsorption isotherm of Hydrogen on COF-105
DOI: 10.1016/j.micromeso.2010.04.015
Adsorbate Hydrogen: InChIKey UFHFLCQGNIYNRP-UHFFFAOYSA-N
Temperature: 77 K
Tabular data in the source: 0
pressure (bar)	uptake (wt%)
3.24133	2.19579
6.08167	3.80167
20.2833	9.76638
30.7707	12.1064
41.0397	13.6664
50.2161	14.997
60.7035	16.144
70.317	17.1534
80.3674	17.9334
90.4178	18.6676
100.25	19.4017
