Adsorption isotherm of Hydrogen on COF-103
DOI: 10.1016/j.micromeso.2010.04.015
Adsorbate Hydrogen: InChIKey UFHFLCQGNIYNRP-UHFFFAOYSA-N
Temperature: 77 K
Tabular data in the source: 0
pressure (bar)	uptake (wt%)
5.42621	4.44403
19.8464	8.75697
30.5523	9.85814
41.2581	10.7299
49.9976	11.097
60.0481	11.464
69.443	11.7393
81.2413	12.1064
90.6363	12.0605
99.8128	12.1523
