Adsorption isotherm of Hydrogen on COF-105
DOI: 10.1016/j.micromeso.2010.04.015
Adsorbate Hydrogen: InChIKey UFHFLCQGNIYNRP-UHFFFAOYSA-N
Temperature: 77 K
Tabular data in the source: 0
pressure (bar)	uptake (wt%)
0.182509	0.377758
4.77074	4.9223
5.86318	6.11524
9.79595	7.76263
20.7203	11.5119
30.7707	14.125
40.6027	16.0564
50.2161	17.5334
60.2665	18.7263
70.9724	19.7488
80.3674	20.4305
90.8548	21.2826
100.031	21.7371
