Adsorption isotherm of Hydrogen on COF-102
DOI: 10.1016/j.micromeso.2010.04.015
Adsorbate Hydrogen: InChIKey UFHFLCQGNIYNRP-UHFFFAOYSA-N
Temperature: 77 K
Tabular data in the source: 0
pressure (bar)	uptake (wt%)
19.8464	8.16028
30.5523	9.58045
40.8212	10.3757
49.5607	10.7166
59.8296	10.9438
70.9724	11.3415
79.7119	11.3983
91.2918	11.8527
100.687	12.0799
