Adsorption isotherm of Hydrogen on COF-102
DOI: 10.1016/j.micromeso.2010.04.015
Adsorbate Hydrogen: InChIKey UFHFLCQGNIYNRP-UHFFFAOYSA-N
Temperature: 77 K
Tabular data in the source: 0
pressure (bar)	uptake (wt%)
4.33377	6.17204
9.79595	8.38751
20.2833	10.0917
29.8968	10.8302
40.1657	11.2278
50.4346	11.6255
60.0481	12.0231
70.0985	12.0799
80.3674	12.3072
90.1993	12.4208
99.8128	12.5912
