Adsorption isotherm of Hydrogen on COF-102
DOI: 10.1016/j.micromeso.2010.04.015
Adsorbate Hydrogen: InChIKey UFHFLCQGNIYNRP-UHFFFAOYSA-N
Temperature: 77 K
Tabular data in the source: 0
pressure (bar)	uptake (mg/g)
1.49343	18.8782
2.58587	26.3505
5.42621	44.8345
7.61108	54.2732
10.2329	62.1387
13.2918	70.0043
20.0649	82.5891
23.9976	91.6345
31.4262	99.8933
39.7287	106.186
45.4094	112.871
52.6195	117.591
60.0481	125.85
72.7203	136.468
86.485	149.053
