Adsorption isotherm of Hydrogen on COF-10
DOI: 10.1016/j.micromeso.2010.04.015
Adsorbate Hydrogen: InChIKey UFHFLCQGNIYNRP-UHFFFAOYSA-N
Temperature: 77 K
Tabular data in the source: 0
pressure (bar)	uptake (mg/g)
0.837971	5.89961
4.55226	19.4677
10.0144	27.9231
19.4094	38.1483
29.8968	45.2273
40.3842	51.1265
50.2161	55.4525
60.0481	59.7786
70.5355	62.7282
80.3674	66.2677
90.4178	68.6273
