Adsorption isotherm of Hydrogen on COF-8
DOI: 10.1016/j.micromeso.2010.04.015
Adsorbate Hydrogen: InChIKey UFHFLCQGNIYNRP-UHFFFAOYSA-N
Temperature: 77 K
Tabular data in the source: 0
pressure (bar)	uptake (mg/g)
1.05646	0.243436
1.49343	4.3073
5.42621	16.3678
10.2329	23.1846
20.5018	30.6569
30.5523	35.2451
40.6027	38.1292
50.4346	40.0955
60.2665	42.5863
70.317	44.4216
80.5859	45.6014
90.1993	46.9123
