Adsorption isotherm of Hydrogen on COF-202
DOI: 10.1016/j.micromeso.2010.04.015
Adsorbate Hydrogen: InChIKey UFHFLCQGNIYNRP-UHFFFAOYSA-N
Temperature: 298 K
Tabular data in the source: 0
pressure (bar)	uptake (wt%)
0.948003	0.0464374
4.73512	0.0901349
9.97882	0.170247
20.1749	0.308622
30.2253	0.461563
40.4214	0.585373
50.1805	0.7019
59.7939	0.825709
70.427	0.934953
80.1861	1.03691
90.3822	1.16801
99.7043	1.26268
