Adsorption isotherm of Hydrogen on COF-103
DOI: 10.1016/j.micromeso.2010.04.015
Adsorbate Hydrogen: InChIKey UFHFLCQGNIYNRP-UHFFFAOYSA-N
Temperature: 77 K
Tabular data in the source: 0
pressure (bar)	uptake (mg/g)
0.400996	12.8105
1.71192	18.0542
3.67831	31.3382
5.64469	43.224
12.4178	58.955
15.6951	64.8979
25.7455	75.0357
34.922	82.7265
43.006	86.9214
52.401	90.4172
62.2329	93.5634
72.2833	96.7097
80.3674	99.8559
85.6111	101.254
