Adsorption isotherm of Hydrogen on COF-8
DOI: 10.1016/j.micromeso.2010.04.015
Adsorbate Hydrogen: InChIKey UFHFLCQGNIYNRP-UHFFFAOYSA-N
Temperature: 77 K
Tabular data in the source: 0
pressure (bar)	uptake (mg/g)
1.05646	7.19133
1.93041	11.2552
3.24133	17.1544
4.11528	21.6115
7.61108	25.9376
10.0144	29.7392
13.5102	31.9678
17.2245	34.5897
23.7791	37.4737
33.6111	41.4065
42.5691	43.8972
53.9304	46.5191
60.922	47.9611
70.5355	49.4031
80.3674	50.9762
