Adsorption isotherm of Hydrogen on COF-108
DOI: 10.1016/j.micromeso.2010.04.015
Adsorbate Hydrogen: InChIKey UFHFLCQGNIYNRP-UHFFFAOYSA-N
Temperature: 298 K
Tabular data in the source: 0
pressure (bar)	uptake (wt%)
0.619484	0.0555804
4.98923	0.263143
10.0144	0.492555
19.6279	0.940454
29.4598	1.38835
39.7287	1.82533
49.7791	2.2623
60.0481	2.6665
70.317	3.07071
80.3674	3.45306
89.9808	3.81356
100.031	4.17407
