Adsorption isotherm of Hydrogen on COF-108
DOI: 10.1016/j.micromeso.2010.04.015
Adsorbate Hydrogen: InChIKey UFHFLCQGNIYNRP-UHFFFAOYSA-N
Temperature: 77 K
Tabular data in the source: 0
pressure (bar)	uptake (wt%)
0.0140218	0.00749056
0.103602	0.112365
0.199736	0.23297
0.299148	0.353575
0.404022	0.463692
0.496879	0.571188
