Adsorption isotherm of Hydrogen on COF-5
DOI: 10.1016/j.micromeso.2010.04.015
Adsorbate Hydrogen: InChIKey UFHFLCQGNIYNRP-UHFFFAOYSA-N
Temperature: 77 K
Tabular data in the source: 0
pressure (bar)	uptake (mg/g)
2.4579	12.204
4.14026	19.1956
9.90832	28.1536
13.994	32.5234
18.3201	36.2377
24.0882	40.6074
34.1823	46.9435
40.9117	50.0024
47.4008	52.6242
53.1688	54.5906
61.8209	57.4309
70.2327	60.2713
77.6831	62.8931
86.8159	65.515
