Adsorption isotherm of Hydrogen on TP-COF
DOI: 10.1016/j.micromeso.2010.04.015
Adsorbate Hydrogen: InChIKey UFHFLCQGNIYNRP-UHFFFAOYSA-N
Temperature: 77 K
Tabular data in the source: 0
pressure (bar)	uptake (wt%)
0.0183915	0.0127343
0.102509	0.0782805
0.200829	0.159558
0.302425	0.23297
0.396375	0.309003
0.497971	0.382415
