Adsorption isotherm of Hydrogen on COF-102
DOI: 10.1016/j.micromeso.2010.04.015
Adsorbate Hydrogen: InChIKey UFHFLCQGNIYNRP-UHFFFAOYSA-N
Temperature: 77 K
Tabular data in the source: 0
pressure (bar)	uptake (mg/g)
0.619484	0.394173
4.77074	44.048
10.2329	68.0379
20.5018	92.0278
30.1153	104.219
40.3842	112.085
49.9976	117.984
60.2665	122.703
70.5355	126.636
79.9304	128.209
90.6363	132.535
