Adsorption isotherm of Hydrogen on COF-1
DOI: 10.1016/j.micromeso.2010.04.015
Adsorbate Hydrogen: InChIKey UFHFLCQGNIYNRP-UHFFFAOYSA-N
Temperature: 77 K
Tabular data in the source: 0
pressure (bar)	uptake (wt%)
0.0118369	0.033709
0.101417	0.288028
0.199736	0.50302
0.30024	0.657709
0.39856	0.799289
0.499064	0.88581
