Adsorption isotherm of Hydrogen on COF-108
DOI: 10.1016/j.micromeso.2010.04.015
Adsorbate Hydrogen: InChIKey UFHFLCQGNIYNRP-UHFFFAOYSA-N
Temperature: 77 K
Tabular data in the source: 0
pressure (bar)	uptake (wt%)
0.0935898	0.102136
0.191909	0.231918
0.298968	0.352086
0.397287	0.457834
0.497791	0.568388
0.600481	0.674136
0.696615	0.784691
0.797119	0.880825
0.897623	0.981766
1.00468	1.0779
