Adsorption isotherm of Hydrogen on COF-1
DOI: 10.1016/j.micromeso.2010.04.015
Adsorbate Hydrogen: InChIKey UFHFLCQGNIYNRP-UHFFFAOYSA-N
Temperature: 298 K
Tabular data in the source: 0
pressure (bar)	uptake (mg/g)
0.837971	0.00491821
5.20772	0.0216325
9.79595	0.0383468
20.7203	0.0747249
29.8968	0.10717
39.7287	0.136666
50.2161	0.169111
60.2665	0.194675
69.88	0.222204
80.5859	0.250717
90.6363	0.27628
100.25	0.298893
