Adsorption isotherm of Hydrogen on TP-COF
DOI: 10.1016/j.micromeso.2010.04.015
Adsorbate Hydrogen: InChIKey UFHFLCQGNIYNRP-UHFFFAOYSA-N
Temperature: 298 K
Tabular data in the source: 0
pressure (bar)	uptake (wt%)
1.23932	0.0173057
9.97882	0.126549
20.1749	0.243076
29.3514	0.337754
39.6931	0.490695
50.4718	0.599939
60.0853	0.709183
70.1357	0.832992
79.8948	0.913104
90.6735	1.02963
100.724	1.09518
