Adsorption isotherm of Hydrogen on COF-105
DOI: 10.1016/j.micromeso.2010.04.015
Adsorbate Hydrogen: InChIKey UFHFLCQGNIYNRP-UHFFFAOYSA-N
Temperature: 77 K
Tabular data in the source: 0
pressure (bar)	uptake (wt%)
0.0162067	0.017978
0.0981394	0.0887679
0.199736	0.185776
0.299148	0.282785
0.399652	0.382415
0.494694	0.471558
