Adsorption isotherm of Hydrogen on COF-102
DOI: 10.1016/j.micromeso.2010.04.015
Adsorbate Hydrogen: InChIKey UFHFLCQGNIYNRP-UHFFFAOYSA-N
Temperature: 77 K
Tabular data in the source: 0
pressure (bar)	uptake (mg/g)
1.27495	15.3387
2.58587	28.3169
6.08167	49.9471
9.57747	61.3522
16.7876	75.9034
23.7791	83.3757
33.3926	89.2748
44.7539	95.174
51.964	99.1068
65.7287	103.826
79.4934	109.332
86.485	110.119
