Adsorption isotherm of Hydrogen on COF-6
DOI: 10.1016/j.micromeso.2010.04.015
Adsorbate Hydrogen: InChIKey UFHFLCQGNIYNRP-UHFFFAOYSA-N
Temperature: 298 K
Tabular data in the source: 0
pressure (bar)	uptake (wt%)
1.82195	-0.0191088
5.02643	0.0100228
9.97882	0.0682861
19.8836	0.0901349
30.2253	0.141115
40.1301	0.162964
50.1805	0.213944
59.7939	0.250359
69.99	0.279491
80.4774	0.337754
89.6539	0.359603
100.141	0.388734
