Adsorption isotherm of Hydrogen on COF-1
DOI: 10.1016/j.micromeso.2010.04.015
Adsorbate Hydrogen: InChIKey UFHFLCQGNIYNRP-UHFFFAOYSA-N
Temperature: 77 K
Tabular data in the source: 0
pressure (bar)	uptake (wt%)
20.7203	2.24167
30.9892	2.33344
39.9472	2.4252
50.4346	2.33344
60.485	2.56285
70.317	2.51697
80.3674	2.56285
90.1993	2.51697
99.5943	2.56285
