Adsorption isotherm of Hydrogen on COF-8
DOI: 10.1016/j.micromeso.2010.04.015
Adsorbate Hydrogen: InChIKey UFHFLCQGNIYNRP-UHFFFAOYSA-N
Temperature: 77 K
Tabular data in the source: 0
pressure (bar)	uptake (mg/g)
1.27495	5.48713
5.64469	20.1695
10.4514	29.0838
20.9388	38.2602
30.7707	43.7661
40.3842	47.3056
50.4346	50.0586
60.485	52.6804
70.7539	55.0401
80.3674	56.4821
90.8548	58.0552
