Adsorption isotherm of Hydrogen on COF-202
DOI: 10.1016/j.micromeso.2010.04.015
Adsorbate Hydrogen: InChIKey UFHFLCQGNIYNRP-UHFFFAOYSA-N
Temperature: 77 K
Tabular data in the source: 0
pressure (bar)	uptake (wt%)
0.0118369	0.0205998
0.101417	0.274919
0.200829	0.526617
0.30024	0.736365
0.401837	0.927759
0.499064	1.10605
