Adsorption isotherm of Hydrogen on COF-102
DOI: 10.1016/j.micromeso.2010.04.015
Adsorbate Hydrogen: InChIKey UFHFLCQGNIYNRP-UHFFFAOYSA-N
Temperature: 77 K
Tabular data in the source: 0
pressure (bar)	uptake (wt%)
0.0127495	0.0204218
0.0979595	0.212691
0.205018	0.428993
0.296783	0.602035
0.395102	0.808724
0.489052	0.99138
0.591741	1.18846
0.69443	1.37111
0.801489	1.56819
0.899808	1.73642
1.00031	1.89985
