Adsorption isotherm of Hydrogen on COF-105
DOI: 10.1016/j.micromeso.2010.04.015
Adsorbate Hydrogen: InChIKey UFHFLCQGNIYNRP-UHFFFAOYSA-N
Temperature: 77 K
Tabular data in the source: 0
pressure (bar)	uptake (wt%)
5.20772	3.55893
10.6699	6.00162
20.0649	9.46683
30.5523	11.7959
40.8212	13.5001
50.6531	14.8635
60.2665	16.0564
70.0985	16.9085
80.3674	17.8174
91.0733	18.6695
100.25	19.2944
