Adsorption isotherm of Hydrogen on COF-5
DOI: 10.1016/j.micromeso.2010.04.015
Adsorbate Hydrogen: InChIKey UFHFLCQGNIYNRP-UHFFFAOYSA-N
Temperature: 298 K
Tabular data in the source: 0
pressure (bar)	uptake (wt%)
9.97882	0.111984
20.4662	0.192096
30.2253	0.294056
39.9844	0.374168
50.1805	0.476129
60.0853	0.570807
70.427	0.658202
80.1861	0.716465
89.9452	0.796577
99.7043	0.876689
