Adsorption isotherm of Hydrogen on COF-6
DOI: 10.1016/j.micromeso.2010.04.015
Adsorbate Hydrogen: InChIKey UFHFLCQGNIYNRP-UHFFFAOYSA-N
Temperature: 77 K
Tabular data in the source: 0
pressure (bar)	uptake (mg/g)
0.837971	0.295182
1.27495	10.6187
2.58587	16.6162
4.98923	19.1725
10.4514	21.9254
20.2833	23.9901
30.1153	25.3666
40.3842	25.9565
49.9976	26.5464
60.0481	26.7431
70.5355	27.038
80.1489	27.333
90.6363	27.5296
