Adsorption isotherm of Hydrogen on COF-1
DOI: 10.1016/j.micromeso.2010.04.015
Adsorbate Hydrogen: InChIKey UFHFLCQGNIYNRP-UHFFFAOYSA-N
Temperature: 77 K
Tabular data in the source: 0
pressure (bar)	uptake (mg/g)
1.05646	6.21752
1.71192	8.90491
3.24133	10.478
4.33377	11.7234
11.1069	14.0175
20.2833	16.115
27.2749	17.0326
33.8296	17.6226
42.7876	18.9335
53.0565	19.8511
61.5775	20.8343
72.2833	21.8175
86.2665	22.9973
