Adsorption isotherm of Hydrogen on COF-103
DOI: 10.1016/j.micromeso.2010.04.015
Adsorbate Hydrogen: InChIKey UFHFLCQGNIYNRP-UHFFFAOYSA-N
Temperature: 77 K
Tabular data in the source: 0
pressure (bar)	uptake (mg/g)
0.400996	0.575212
0.837971	8.96513
4.98923	40.4273
10.2329	62.8004
19.8464	86.9214
29.8968	100.205
39.7287	108.246
49.3422	113.49
59.8296	118.384
70.0985	122.928
79.9304	125.375
90.1993	125.375
