Adsorption isotherm of Hydrogen on COF-10
DOI: 10.1016/j.micromeso.2010.04.015
Adsorbate Hydrogen: InChIKey UFHFLCQGNIYNRP-UHFFFAOYSA-N
Temperature: 77 K
Tabular data in the source: 0
pressure (bar)	uptake (wt%)
0.0140218	0.00486872
0.101417	0.0494401
0.199736	0.117608
0.301333	0.183154
0.39856	0.246079
0.496879	0.293272
