Adsorption isotherm of Hydrogen on COF-8
DOI: 10.1016/j.micromeso.2010.04.015
Adsorbate Hydrogen: InChIKey UFHFLCQGNIYNRP-UHFFFAOYSA-N
Temperature: 77 K
Tabular data in the source: 0
pressure (bar)	uptake (wt%)
4.55226	1.59932
10.6699	2.37932
20.7203	2.97579
30.3338	3.43461
40.8212	3.75579
50.4346	3.9852
60.2665	4.12285
69.88	4.35226
80.3674	4.39814
90.1993	4.48991
99.8128	4.71932
