Adsorption isotherm of Hydrogen on COF-102
DOI: 10.1016/j.micromeso.2010.04.015
Adsorbate Hydrogen: InChIKey UFHFLCQGNIYNRP-UHFFFAOYSA-N
Temperature: 77 K
Tabular data in the source: 0
pressure (bar)	uptake (wt%)
0.0118369	0.0101124
0.101417	0.125474
0.196459	0.246079
0.298055	0.369306
0.396375	0.492533
0.495786	0.615759
