Adsorption isotherm of Hydrogen on COF-6
DOI: 10.1016/j.micromeso.2010.04.015
Adsorbate Hydrogen: InChIKey UFHFLCQGNIYNRP-UHFFFAOYSA-N
Temperature: 77 K
Tabular data in the source: 0
pressure (bar)	uptake (mg/g)
0.619484	0.59014
0.619484	12.0935
1.93041	14.9448
2.58587	17.6977
4.33377	20.3523
6.73713	22.2204
9.57747	23.1053
13.5102	24.6784
26.1825	27.628
40.1657	30.7742
53.9304	32.8389
66.1657	35.4935
73.5943	36.4767
80.5859	38.0498
86.0481	39.033
