Adsorption isotherm of Hydrogen on COF-6
DOI: 10.1016/j.micromeso.2010.04.015
Adsorbate Hydrogen: InChIKey UFHFLCQGNIYNRP-UHFFFAOYSA-N
Temperature: 77 K
Tabular data in the source: 0
pressure (bar)	uptake (mg/g)
1.49343	14.3548
1.71192	16.5179
4.33377	20.1557
7.17411	21.9254
12.4178	23.4002
19.8464	24.6784
26.401	25.17
33.6111	25.7599
41.6951	26.5464
46.5018	26.6448
53.2749	27.038
61.796	27.1364
65.5102	27.2347
73.3758	28.2179
79.0565	28.2179
85.1741	28.8078
