Adsorption isotherm of Hydrogen on COF-1
DOI: 10.1016/j.micromeso.2010.04.015
Adsorbate Hydrogen: InChIKey UFHFLCQGNIYNRP-UHFFFAOYSA-N
Temperature: 298 K
Tabular data in the source: 0
pressure (bar)	uptake (wt%)
9.97882	0.0610032
19.8836	0.0974178
29.7883	0.119267
39.5474	0.155681
50.3262	0.199379
59.9396	0.22851
70.2813	0.257642
79.8948	0.294056
89.6539	0.323188
99.85	0.359603
