Adsorption isotherm of Hydrogen on COF-105
DOI: 10.1016/j.micromeso.2010.04.015
Adsorbate Hydrogen: InChIKey UFHFLCQGNIYNRP-UHFFFAOYSA-N
Temperature: 77 K
Tabular data in the source: 0
pressure (bar)	uptake (wt%)
0.0171192	0.0204218
0.0957747	0.145397
0.191909	0.270371
0.296783	0.40496
0.399472	0.539548
0.502161	0.669329
0.596111	0.799111
0.700985	0.924086
0.797119	1.04425
0.895439	1.14519
0.993758	1.28459
