Adsorption isotherm of Hydrogen on COF-103
DOI: 10.1016/j.micromeso.2010.04.015
Adsorbate Hydrogen: InChIKey UFHFLCQGNIYNRP-UHFFFAOYSA-N
Temperature: 298 K
Tabular data in the source: 0
pressure (bar)	uptake (wt%)
20.1749	0.869407
30.0797	1.24084
39.1105	1.64868
49.8892	1.97641
60.0853	2.28229
69.8444	2.58817
79.7491	2.83579
90.5278	3.10526
99.85	3.36745
