Adsorption isotherm of Hydrogen on COF-5
DOI: 10.1016/j.micromeso.2010.04.015
Adsorbate Hydrogen: InChIKey UFHFLCQGNIYNRP-UHFFFAOYSA-N
Temperature: 77 K
Tabular data in the source: 0
pressure (bar)	uptake (mg/g)
0.535214	0.405726
1.49656	6.30489
5.34194	21.3805
10.1487	34.0528
20.7234	49.5654
31.0579	58.9603
40.431	65.7335
50.7655	71.1956
61.0999	77.5318
70.473	81.9015
81.0478	86.0528
90.9016	89.3301
