Adsorption isotherm of Hydrogen on COF-108
DOI: 10.1016/j.micromeso.2010.04.015
Adsorbate Hydrogen: InChIKey UFHFLCQGNIYNRP-UHFFFAOYSA-N
Temperature: 77 K
Tabular data in the source: 0
pressure (bar)	uptake (wt%)
0.0149343	0.0204218
0.0935898	0.135783
0.200649	0.270371
0.296783	0.40496
0.392918	0.529934
0.504346	0.664523
0.600481	0.775077
0.6988	0.900052
0.794934	1.02022
0.901993	1.13077
0.995943	1.2221
