Adsorption isotherm of Hydrogen on COF-6
DOI: 10.1016/j.micromeso.2010.04.015
Adsorbate Hydrogen: InChIKey UFHFLCQGNIYNRP-UHFFFAOYSA-N
Temperature: 77 K
Tabular data in the source: 0
pressure (bar)	uptake (mg/g)
0.619484	0.196863
0.837971	4.52291
1.49343	10.3238
5.20772	18.3859
10.2329	20.8439
20.0649	23.0069
30.5523	24.2851
40.3842	25.0717
50.2161	25.5632
60.2665	25.8582
70.5355	26.2515
80.1489	26.4481
90.4178	26.7431
