Adsorption isotherm of Hydrogen on COF-103
DOI: 10.1016/j.micromeso.2010.04.015
Adsorbate Hydrogen: InChIKey UFHFLCQGNIYNRP-UHFFFAOYSA-N
Temperature: 77 K
Tabular data in the source: 0
pressure (bar)	uptake (wt%)
0.100144	0.116556
0.194094	0.236724
0.298968	0.347279
0.401657	0.467447
0.493422	0.582808
0.600481	0.683749
0.700985	0.799111
0.799304	0.909665
0.904178	1.02022
1.0025	1.12116
