Adsorption isotherm of Hydrogen on COF-5
DOI: 10.1016/j.micromeso.2010.04.015
Adsorbate Hydrogen: InChIKey UFHFLCQGNIYNRP-UHFFFAOYSA-N
Temperature: 77 K
Tabular data in the source: 0
pressure (bar)	uptake (wt%)
5.42621	1.18638
10.2329	1.96638
20.5018	2.83814
30.5523	3.25108
40.8212	3.93932
50.4346	4.16873
60.2665	4.44403
70.317	4.67344
80.3674	4.85697
90.4178	4.99461
100.031	5.26991
