Adsorption isotherm of Hydrogen on COF-102
DOI: 10.1016/j.micromeso.2010.04.015
Adsorbate Hydrogen: InChIKey UFHFLCQGNIYNRP-UHFFFAOYSA-N
Temperature: 298 K
Tabular data in the source: 0
pressure (bar)	uptake (wt%)
4.00683	0.0974178
9.54184	0.213944
19.7379	0.432432
29.497	0.614505
39.8388	0.789295
50.1805	0.985933
59.357	1.13159
70.427	1.31366
79.7491	1.45204
90.5278	1.61955
99.5586	1.75064
