Adsorption isotherm of Hydrogen on COF-108
DOI: 10.1016/j.micromeso.2010.04.015
Adsorbate Hydrogen: InChIKey UFHFLCQGNIYNRP-UHFFFAOYSA-N
Temperature: 77 K
Tabular data in the source: 0
pressure (bar)	uptake (wt%)
9.79595	6.41697
20.7203	9.99579
31.4262	12.3817
40.8212	14.1252
51.0901	15.6852
59.8296	16.6028
70.7539	17.7499
80.3674	18.7134
90.4178	19.5393
100.25	20.2276
