Adsorption isotherm of Hydrogen on COF-5
DOI: 10.1016/j.micromeso.2010.04.015
Adsorbate Hydrogen: InChIKey UFHFLCQGNIYNRP-UHFFFAOYSA-N
Temperature: 77 K
Tabular data in the source: 0
pressure (bar)	uptake (mg/g)
0.619484	0.0597443
4.98923	11.5959
9.79595	20.4883
20.7203	28.9001
29.6783	33.7068
40.8212	38.2732
49.5607	41.3976
60.922	44.5219
69.6615	46.685
80.5859	49.8093
89.7623	51.011
