Adsorption isotherm of Hydrogen on COF-10
DOI: 10.1016/j.micromeso.2010.04.015
Adsorbate Hydrogen: InChIKey UFHFLCQGNIYNRP-UHFFFAOYSA-N
Temperature: 298 K
Tabular data in the source: 0
pressure (bar)	uptake (wt%)
19.7379	0.272208
29.6427	0.396017
39.8388	0.541675
49.7435	0.658202
60.0853	0.782012
69.553	0.883972
80.0404	0.993216
89.9452	1.08789
99.85	1.18985
