Adsorption isotherm of Hydrogen on COF-103
DOI: 10.1016/j.micromeso.2010.04.015
Adsorbate Hydrogen: InChIKey UFHFLCQGNIYNRP-UHFFFAOYSA-N
Temperature: 77 K
Tabular data in the source: 0
pressure (bar)	uptake (wt%)
1.05646	1.68431
5.42621	6.17204
9.35898	8.72835
19.8464	10.9438
30.7707	11.7391
40.1657	12.2504
51.0901	12.7048
60.485	12.932
70.9724	13.1593
81.0228	13.2729
90.8548	13.3865
100.031	13.6705
