Adsorption isotherm of Hydrogen on COF-105
DOI: 10.1016/j.micromeso.2010.04.015
Adsorbate Hydrogen: InChIKey UFHFLCQGNIYNRP-UHFFFAOYSA-N
Temperature: 77 K
Tabular data in the source: 0
pressure (bar)	uptake (wt%)
0.021489	0.0156151
0.106699	0.0973293
0.202833	0.193464
0.294598	0.279985
0.401657	0.380926
0.502161	0.467447
0.600481	0.553968
0.700985	0.650102
0.803674	0.736623
0.906363	0.847178
0.995943	0.924086
