Adsorption isotherm of Hydrogen on COF-103
DOI: 10.1016/j.micromeso.2010.04.015
Adsorbate Hydrogen: InChIKey UFHFLCQGNIYNRP-UHFFFAOYSA-N
Temperature: 77 K
Tabular data in the source: 0
pressure (bar)	uptake (mg/g)
0.837971	0.225633
4.77074	30.6391
9.79595	48.8172
20.2833	68.0441
30.3338	78.1819
39.9472	85.1735
49.5607	89.3685
59.6111	93.2139
70.317	96.3601
79.7119	98.108
89.9808	98.108
