Adsorption isotherm of Hydrogen on COF-102
DOI: 10.1016/j.micromeso.2010.04.015
Adsorbate Hydrogen: InChIKey UFHFLCQGNIYNRP-UHFFFAOYSA-N
Temperature: 77 K
Tabular data in the source: 0
pressure (bar)	uptake (mg/g)
0.400996	1.574
4.77074	37.3622
10.0144	57.0261
20.2833	75.5101
30.3338	86.9152
40.3842	93.2076
50.6531	97.9269
60.2665	101.86
70.7539	104.613
80.3674	106.972
90.6363	109.725
