Adsorption isotherm of Hydrogen on COF-108
DOI: 10.1016/j.micromeso.2010.04.015
Adsorbate Hydrogen: InChIKey UFHFLCQGNIYNRP-UHFFFAOYSA-N
Temperature: 77 K
Tabular data in the source: 0
pressure (bar)	uptake (wt%)
1.71192	0.377758
5.20772	4.41104
10.8884	6.6265
19.6279	9.75087
30.1153	12.1936
39.7287	13.9546
49.7791	15.4315
59.1741	16.4541
69.2245	17.7038
79.9304	18.5559
90.6363	19.2944
99.3758	19.7488
