Adsorption isotherm of Hydrogen on COF-103
DOI: 10.1016/j.micromeso.2010.04.015
Adsorbate Hydrogen: InChIKey UFHFLCQGNIYNRP-UHFFFAOYSA-N
Temperature: 77 K
Tabular data in the source: 0
pressure (bar)	uptake (wt%)
10.8884	6.45608
20.2833	8.50112
30.1153	9.80767
41.2581	10.4894
50.8716	11.0006
60.922	11.3415
69.88	11.6823
79.9304	11.8527
89.9808	11.8527
100.25	12.0231
