Adsorption isotherm of Hydrogen on COF-108
DOI: 10.1016/j.micromeso.2010.04.015
Adsorbate Hydrogen: InChIKey UFHFLCQGNIYNRP-UHFFFAOYSA-N
Temperature: 77 K
Tabular data in the source: 0
pressure (bar)	uptake (wt%)
0.619484	0.207338
5.20772	4.46784
10.8884	7.42179
19.8464	11.3983
30.9892	14.0114
40.8212	16.3404
51.3086	17.9878
61.1405	19.124
70.0985	20.6578
80.5859	21.6803
90.6363	22.362
100.687	23.1004
