Adsorption isotherm of Hydrogen on COF-102
DOI: 10.1016/j.micromeso.2010.04.015
Adsorbate Hydrogen: InChIKey UFHFLCQGNIYNRP-UHFFFAOYSA-N
Temperature: 77 K
Tabular data in the source: 0
pressure (bar)	uptake (wt%)
5.64469	4.44403
20.7203	8.61932
30.9892	9.67461
40.3842	10.317
50.6531	10.7758
60.7035	11.0511
70.0985	11.3723
80.5859	11.6017
89.9808	11.7852
100.25	12.1064
