Adsorption isotherm of Hydrogen on TP-COF
DOI: 10.1016/j.micromeso.2010.04.015
Adsorbate Hydrogen: InChIKey UFHFLCQGNIYNRP-UHFFFAOYSA-N
Temperature: 77 K
Tabular data in the source: 0
pressure (bar)	uptake (wt%)
5.42621	1.82873
10.4514	2.56285
20.9388	3.61814
30.3338	4.2605
41.0397	4.71932
50.4346	5.13226
60.2665	5.49932
71.1909	5.8205
79.9304	6.00403
90.4178	6.27932
99.5943	6.50873
