Adsorption isotherm of Hydrogen on COF-10
DOI: 10.1016/j.micromeso.2010.04.015
Adsorbate Hydrogen: InChIKey UFHFLCQGNIYNRP-UHFFFAOYSA-N
Temperature: 77 K
Tabular data in the source: 0
pressure (bar)	uptake (wt%)
5.64469	1.87461
10.6699	2.88403
20.0649	3.75579
30.3338	4.48991
40.3842	4.99461
50.4346	5.40756
60.485	5.68285
69.88	6.00403
79.9304	6.3252
90.1993	6.6005
99.8128	6.78403
