Adsorption isotherm of Hydrogen on COF-105
DOI: 10.1016/j.micromeso.2010.04.015
Adsorbate Hydrogen: InChIKey UFHFLCQGNIYNRP-UHFFFAOYSA-N
Temperature: 298 K
Tabular data in the source: 0
pressure (bar)	uptake (wt%)
10.5614	0.483412
19.8836	0.905821
30.5166	1.35008
40.1301	1.75064
50.0348	2.14392
60.5222	2.55904
70.2813	2.95232
80.3318	3.31647
90.2365	3.6442
99.7043	3.98649
