Adsorption isotherm of Hydrogen on COF-10
DOI: 10.1016/j.micromeso.2010.04.015
Adsorbate Hydrogen: InChIKey UFHFLCQGNIYNRP-UHFFFAOYSA-N
Temperature: 77 K
Tabular data in the source: 0
pressure (bar)	uptake (mg/g)
1.49343	10.2257
1.93041	20.2542
4.55226	27.3332
7.61108	30.8727
12.6363	37.3618
17.2245	42.0811
23.7791	47.1937
29.0228	51.1265
36.8884	55.8458
43.88	60.3685
52.401	63.7114
62.0144	68.6273
71.1909	71.3803
80.8044	74.7231
86.922	76.2962
