Adsorption isotherm of Hydrogen on COF-5
DOI: 10.1016/j.micromeso.2010.04.015
Adsorbate Hydrogen: InChIKey UFHFLCQGNIYNRP-UHFFFAOYSA-N
Temperature: 77 K
Tabular data in the source: 0
pressure (bar)	uptake (mg/g)
1.49656	9.80068
2.93858	15.0444
6.78395	25.7503
10.389	29.4646
14.2344	33.6158
19.5218	40.8259
26.9722	46.2881
34.9033	51.7503
40.1907	56.557
46.4394	59.8343
54.8512	63.7671
60.1386	68.1368
66.868	72.5066
72.3957	75.5654
80.0865	77.9688
87.5369	83.2124
