Adsorption isotherm of Carbon Dioxide on CPF-13
DOI: 10.1021/Cm301322b
Adsorbate Carbon Dioxide: InChIKey CURLTUGMZLYLDI-UHFFFAOYSA-N
Temperature: 273 K
Tabular data in the source: 0
pressure (bar)	uptake (mmol/g)
0.00674009	0.226337
0.0101509	0.407407
0.0168774	0.611111
0.0335918	0.950617
0.0569103	1.29012
0.0735975	1.58436
0.0935731	1.85597
0.113522	2.0823
0.123509	2.21811
0.143417	2.37654
0.156721	2.53498
0.176628	2.69342
0.199838	2.85185
0.223035	2.98765
0.246244	3.14609
0.272729	3.25926
0.292623	3.39506
0.319108	3.50823
0.345579	3.59877
0.37205	3.6893
0.395219	3.77984
0.421691	3.87037
0.448175	3.98354
0.471331	4.05144
0.501091	4.11934
0.527548	4.18724
0.554006	4.25514
0.583765	4.32305
0.610223	4.39095
0.639983	4.45885
0.669729	4.50412
0.699502	4.59465
0.725932	4.61728
0.755692	4.68519
0.785452	4.75309
0.811896	4.79835
0.841642	4.84362
0.87469	4.88889
0.901148	4.95679
0.934196	5.00206
0.96064	5.04733
0.993675	5.06996
1.02343	5.13786
1.04988	5.18313
