Adsorption isotherm of Nitrogen on CPF-13
DOI: 10.1021/Cm301322b
Adsorbate Nitrogen: InChIKey IJGRMHOSHXDMSA-UHFFFAOYSA-N
Temperature: 273 K
Tabular data in the source: 0
pressure (bar)	uptake (mmol/g)
0.0330346	0.0226337
0.0726734	0.0452675
0.0825797	0.0452675
0.108997	0.0452675
0.132111	0.0452675
0.165132	0.0452675
0.178354	0.0679012
0.208073	0.0679012
0.257618	0.090535
0.30715	0.090535
0.356681	0.090535
0.409515	0.090535
0.459047	0.090535
0.51188	0.090535
0.561412	0.090535
0.614245	0.090535
0.663777	0.090535
0.71661	0.090535
0.756236	0.090535
0.782653	0.090535
0.815687	0.113169
0.838802	0.113169
0.861917	0.113169
0.878427	0.113169
0.898226	0.090535
0.911435	0.090535
0.931261	0.113169
0.944469	0.113169
0.951073	0.113169
0.964282	0.113169
0.984094	0.113169
1.01054	0.158436
