Adsorption isotherm of Nitrogen on CPF-13
DOI: 10.1021/Cm301322b
Adsorbate Nitrogen: InChIKey IJGRMHOSHXDMSA-UHFFFAOYSA-N
Temperature: 77 K
Tabular data in the source: 0
pressure (bar)	uptake (cm3(STP)/g)
0.00325177	99.7978
0.0097553	190.922
0.0195106	203.952
0.0325177	208.309
0.0520282	212.674
0.0682871	212.696
0.0910494	215.619
0.107308	217.088
0.139826	218.578
0.169092	221.51
0.195106	221.546
0.217868	223.023
0.230875	223.04
0.256889	224.522
0.273148	225.99
0.292659	226.017
0.315421	227.494
0.325177	227.507
0.364198	229.006
0.406471	227.617
0.44224	230.558
0.487765	230.62
0.526786	232.119
0.569059	232.177
0.60808	232.23
0.650353	232.287
0.686122	233.782
0.731647	236.736
0.770668	236.789
0.790179	238.262
0.80969	239.734
0.835704	241.216
0.855214	242.689
0.871473	247.049
0.890984	249.969
0.913746	258.677
0.933257	265.935
0.952767	278.978
0.972278	299.252
0.991788	333.989
