Adsorption isotherm of Carbon Dioxide on CPF-13
DOI: 10.1021/Cm301322b
Adsorbate Carbon Dioxide: InChIKey CURLTUGMZLYLDI-UHFFFAOYSA-N
Temperature: 298 K
Tabular data in the source: 0
pressure (bar)	uptake (mmol/g)
0.0199485	0.226337
0.0332113	0.316872
0.0564483	0.520576
0.0796717	0.701646
0.106211	0.90535
0.132736	1.08642
0.155933	1.22222
0.182458	1.40329
0.208956	1.53909
0.232126	1.62963
0.265242	1.78807
0.295042	1.92387
0.321527	2.03704
0.338078	2.10494
0.3513	2.12757
0.381101	2.26337
0.410874	2.35391
0.440634	2.42181
0.463803	2.51235
0.486945	2.55761
0.510114	2.64815
0.563015	2.76132
0.589486	2.85185
0.62585	2.91975
0.649006	2.98765
0.675436	3.01029
0.698592	3.07819
0.721734	3.12346
0.744875	3.16872
0.771319	3.21399
0.797777	3.28189
0.824207	3.30453
0.834127	3.32716
0.860585	3.39506
0.887015	3.4177
0.913473	3.4856
0.939917	3.53086
0.966334	3.53086
0.992791	3.59877
1.01924	3.64403
1.04565	3.64403
1.06881	3.71193
