Adsorption isotherm of Hydrogen on CPF-13
DOI: 10.1021/Cm301322b
Adsorbate Hydrogen: InChIKey UFHFLCQGNIYNRP-UHFFFAOYSA-N
Temperature: 77 K
Tabular data in the source: 0
pressure (bar)	uptake (cm3(STP)/g)
0	0
0.00325177	78.1036
0.00650353	54.9675
0.0130071	102.704
0.0195106	121.514
0.0260141	134.539
0.0325177	144.672
0.0585318	177.972
0.0943012	201.161
0.123567	215.663
0.156085	230.17
0.185351	238.888
0.214616	247.605
0.247134	256.327
0.2764	260.705
0.308918	267.981
0.338184	272.359
0.370701	276.742
0.399967	281.121
0.429233	284.053
0.461751	288.436
0.491017	292.815
0.520282	295.747
0.549548	298.679
0.582066	301.616
0.611332	304.548
0.643849	308.931
0.673115	310.417
0.702381	311.903
0.734899	316.286
0.767417	317.776
0.793431	320.704
0.8292	323.645
0.855214	325.127
0.887732	328.063
0.916998	328.103
0.946264	331.035
0.978781	333.972
1.0113	336.909
1.04056	338.394
