Adsorption isotherm of Methane on CPF-13
DOI: 10.1021/Cm301322b
Adsorbate Methane: InChIKey VNWKTOKETHGBQD-UHFFFAOYSA-N
Temperature: 273 K
Tabular data in the source: 0
pressure (bar)	uptake (mmol/g)
0.0561629	0.0452675
0.0792912	0.0679012
0.115655	0.135802
0.142086	0.158436
0.171818	0.18107
0.198248	0.203704
0.231297	0.248971
0.261043	0.294239
0.290762	0.294239
0.317206	0.339506
0.356844	0.36214
0.386577	0.384774
0.406403	0.407407
0.419625	0.430041
0.452673	0.475309
0.47909	0.475309
0.508836	0.520576
0.535267	0.54321
0.561711	0.588477
0.594732	0.588477
0.624478	0.633745
0.65421	0.656379
0.687245	0.679012
0.703769	0.701646
0.743421	0.746914
0.76655	0.769547
0.799584	0.792181
0.839223	0.814815
0.862365	0.860082
0.888795	0.882716
0.918514	0.882716
0.951563	0.927984
0.984597	0.950617
1.01765	0.995885
