Adsorption isotherm of Ethene on Cellulose MOF
DOI: 10.1021/acs.iecr.5b00089
Article source: Figure 3e
Adsorbate Ethene: InChIKey VGGSQFUCUMXWEO-UHFFFAOYSA-N
Kind: experiment
Temperature: 298 K
Tabular data in the source: 0
pressure (bar)	uptake (mmol/g)
0.013658	0.260278
0.042106	0.591277
0.064333	0.777682
0.097602	0.919137
0.121015	1.02201
0.146891	1.13132
0.172744	1.19564
0.205985	1.28248
0.233055	1.32432
0.252754	1.37578
0.27491	1.42403
0.3069	1.46909
0.332741	1.51093
0.368418	1.55279
0.391792	1.57856
0.411484	1.61717
0.453301	1.64298
0.476676	1.67196
0.50128	1.69773
0.532029	1.7203
0.561554	1.75251
0.583695	1.77184
0.608291	1.78476
0.637813	1.81054
0.663644	1.8331
0.696849	1.84926
0.709156	1.87178
0.74359	1.88793
0.765728	1.90085
0.7977	1.91057
0.83091	1.93636
0.853046	1.94606
0.881336	1.96862
0.904704	1.98154
0.929299	1.99124
0.962505	2.01061
0.988328	2.0171
1.01293	2.03323
1.03753	2.05258
1.07195	2.05588
