Adsorption isotherm of Ethane on Cellulose MOF
DOI: 10.1021/acs.iecr.5b00089
Article source: Figure 3e
Adsorbate Ethane: InChIKey OTMSDBZUPAUEDD-UHFFFAOYSA-N
Kind: experiment
Temperature: 298 K
Tabular data in the source: 0
pressure (bar)	uptake (mmol/g)
0.01604	0.10928
0.043148	0.225015
0.075157	0.305422
0.09116	0.344019
0.117016	0.414771
0.140396	0.453388
0.166254	0.527353
0.187183	0.582027
0.211808	0.649563
0.242576	0.707477
0.262274	0.758935
0.28444	0.826464
0.316437	0.884381
0.338593	0.932633
0.36198	0.984102
0.387827	1.03879
0.413677	1.09669
0.441988	1.16102
0.457995	1.20605
0.49122	1.26075
0.519521	1.30581
0.544136	1.35407
0.565054	1.38625
0.593356	1.43131
0.62535	1.4828
0.64504	1.51819
0.672111	1.56003
0.696717	1.59223
0.721326	1.62763
0.741011	1.65339
0.76685	1.69201
0.791455	1.72099
0.817288	1.74677
0.836974	1.77252
0.86527	1.80794
0.896016	1.82409
0.915703	1.85305
0.945223	1.87562
0.969827	1.90139
0.995658	1.92395
1.01902	1.93044
1.04363	1.97227
1.06454	1.98839
