Adsorption isotherm of Ethene on Mg-MOF-74 (3)
DOI: 10.1016/j.micromeso.2013.06.023
Adsorbate Ethene: InChIKey VGGSQFUCUMXWEO-UHFFFAOYSA-N
Temperature: 298 K
Tabular data in the source: 0
pressure (bar)	uptake (mmol/g)
0.0126494	1.54639
0.0202201	2.39691
0.0277339	3.01546
0.0351591	3.2732
0.0722725	4.51031
0.0969262	4.97423
0.116634	5.28351
0.131377	5.36082
0.168263	5.6701
0.202675	5.90206
0.23705	5.97938
0.264082	6.13402
0.278812	6.15979
0.337765	6.39175
0.401606	6.54639
0.465442	6.67526
0.526823	6.80412
0.544001	6.80412
0.602916	6.88144
0.674119	7.03608
0.737942	7.1134
0.794396	7.16495
0.809133	7.21649
0.872956	7.29381
0.936772	7.34536
1.00795	7.39691
1.02268	7.42268
