Adsorption isotherm of Nitrogen on Mg-MOF-74 (3)
DOI: 10.1016/j.micromeso.2013.06.023
Adsorbate Nitrogen: InChIKey IJGRMHOSHXDMSA-UHFFFAOYSA-N
Temperature: 77 K
Tabular data in the source: 0
pressure (bar)	uptake (cm3(STP)/g)
0.0218714	238.056
0.0233042	252.227
0.0274592	293.321
0.0286553	283.411
0.0294215	269.25
0.0308045	304.667
0.0319507	316.004
0.0330969	327.34
0.036442	338.686
0.0410767	362.786
0.0620138	374.209
0.10671	381.487
0.124302	381.564
0.135583	384.446
0.153461	387.357
0.197871	391.8
0.215176	389.043
0.285974	393.602
0.376561	398.248
0.427138	398.469
0.478001	401.524
0.524324	403.143
0.575043	404.781
0.62342	404.993
0.674141	406.631
0.720606	409.667
0.746993	409.783
0.769126	411.296
0.793459	412.819
0.820133	415.768
0.848576	414.476
0.875107	416.009
0.901925	420.375
0.915119	420.433
0.941363	419.132
0.961298	420.635
0.985626	422.158
