Adsorption isotherm of Ethane on Ni-MOF-74 (1)
DOI: 10.1016/j.micromeso.2013.06.023
Adsorbate Ethane: InChIKey OTMSDBZUPAUEDD-UHFFFAOYSA-N
Temperature: 298 K
Tabular data in the source: 0
pressure (bar)	uptake (mmol/g)
0.00733198	0.733198
0.01222	1.20402
0.0317719	1.46284
0.0757637	1.75147
0.102648	1.86737
0.131976	1.95473
0.166191	2.04232
0.200407	2.15857
0.232179	2.18874
0.268839	2.2478
0.295723	2.30639
0.332383	2.36544
0.366599	2.39573
0.403259	2.42613
0.464358	2.51501
0.535234	2.5757
0.596334	2.69323
0.669654	2.72539
0.733198	2.78573
0.796741	2.81742
0.865173	2.87799
0.931161	2.9671
1.01181	2.97096
1.06558	3.00218
