Adsorption isotherm of Nitrogen on Ni-MOF-74 (1)
DOI: 10.1016/j.micromeso.2013.06.023
Adsorbate Nitrogen: InChIKey IJGRMHOSHXDMSA-UHFFFAOYSA-N
Temperature: 298 K
Tabular data in the source: 0
pressure (bar)	uptake (mmol/g)
0.0204944	0.0266033
0.0729117	0.0646081
0.100256	0.0874109
0.138979	0.129216
0.168588	0.16342
0.202765	0.193824
0.236932	0.231829
0.266541	0.266033
0.303005	0.292637
0.337177	0.326841
0.373641	0.353444
0.396416	0.380048
0.469333	0.440855
0.535401	0.505463
0.599203	0.55867
0.667569	0.611876
0.735923	0.672684
0.802012	0.72209
0.868096	0.775297
0.931904	0.824703
1.01165	0.893112
1.06406	0.938717
