Adsorption isotherm of Ethane on Mg-MOF-74 (4)
DOI: 10.1016/j.micromeso.2013.06.023
Adsorbate Ethane: InChIKey OTMSDBZUPAUEDD-UHFFFAOYSA-N
Temperature: 298 K
Tabular data in the source: 0
pressure (bar)	uptake (mmol/g)
0.014664	4.41331
0.0171079	4.72861
0.0415479	7.45184
0.0684318	7.94023
0.102648	8.31436
0.13442	8.57375
0.163747	8.74707
0.205295	8.94963
0.237067	9.06576
0.261507	9.15289
0.303055	9.26949
0.329939	9.32808
0.364155	9.41567
0.398371	9.47461
0.466802	9.56384
0.535234	9.65307
0.603666	9.71364
0.664766	9.85983
0.738086	9.92063
0.799185	9.98086
0.867617	10.0414
0.936049	10.0734
1.0167	10.1059
1.06558	10.1082
