Adsorption isotherm of Carbon Dioxide on Ni-MOF-74 (1)
DOI: 10.1016/j.micromeso.2013.06.023
Adsorbate Carbon Dioxide: InChIKey CURLTUGMZLYLDI-UHFFFAOYSA-N
Temperature: 298 K
Tabular data in the source: 0
pressure (bar)	uptake (mmol/g)
0.00731707	0.313564
0.0121951	0.57009
0.0219512	0.769752
0.0341463	0.912492
0.0707317	1.34071
0.097561	1.65474
0.134146	1.88353
0.165854	2.02673
0.202439	2.14156
0.236585	2.31331
0.270732	2.42808
0.3	2.54274
0.334146	2.60053
0.368293	2.74379
0.395122	2.8014
0.463415	2.97397
0.534146	3.0896
0.6	3.20513
0.665854	3.34914
0.731707	3.43618
0.8	3.55176
0.865854	3.66728
0.931707	3.72582
1.00976	3.81315
1.06585	3.92844
