Adsorption isotherm of Ethene on Ni-MOF-74 (2)
DOI: 10.1016/j.micromeso.2013.06.023
Adsorbate Ethene: InChIKey VGGSQFUCUMXWEO-UHFFFAOYSA-N
Temperature: 298 K
Tabular data in the source: 0
pressure (bar)	uptake (mmol/g)
0.00745683	0.386598
0.00770982	1.41753
0.0127	1.75258
0.0127949	2.13918
0.0202644	2.57732
0.025204	2.70619
0.0301625	2.91237
0.0745177	3.65979
0.0966416	3.81443
0.133508	4.04639
0.170381	4.30412
0.204763	4.40722
0.234255	4.58763
0.268636	4.69072
0.300569	4.81959
0.334944	4.89691
0.369325	5
0.403706	5.10309
0.467554	5.28351
0.536291	5.3866
0.60258	5.51546
0.668876	5.6701
0.735153	5.74742
0.801436	5.85052
0.870179	5.97938
0.936468	6.10825
1.01748	6.21134
1.06903	6.28866
