Adsorption isotherm of Methane on Ni-MOF-74 (1)
DOI: 10.1016/j.micromeso.2013.06.023
Adsorbate Methane: InChIKey VNWKTOKETHGBQD-UHFFFAOYSA-N
Temperature: 298 K
Tabular data in the source: 0
pressure (bar)	uptake (mmol/g)
0.0249527	0.0193705
0.0657845	0.042615
0.0975425	0.0619855
0.131569	0.08523
0.170132	0.112349
0.197353	0.127845
0.233648	0.15109
0.267675	0.174334
0.301701	0.197579
0.335728	0.216949
0.367486	0.23632
0.399244	0.259564
0.465028	0.286683
0.53535	0.325424
0.603403	0.356416
0.669187	0.391283
0.734972	0.42615
0.800756	0.457143
0.866541	0.488136
0.936862	0.523002
1.01626	0.557869
1.0707	0.57724
