Adsorption isotherm of N-propane on Mg-MOF-74 (3)
DOI: 10.1016/j.micromeso.2013.06.023
Adsorbate N-propane: InChIKey ATUOYWHBWRKTHZ-UHFFFAOYSA-N
Temperature: 298 K
Tabular data in the source: 0
pressure (bar)	uptake (mmol/g)
0.00451977	0.0963855
0.0158192	1.83133
0.0180791	1.66265
0.0316384	3.87952
0.0338983	4.33735
0.0723164	5.44578
0.140113	6.07229
0.216949	6.36145
0.280226	6.53012
0.327684	6.60241
0.40452	6.6988
0.470056	6.79518
0.528814	6.89157
0.60113	6.93976
0.682486	6.96386
0.734463	7.01205
0.8	7.08434
0.867797	7.13253
0.951412	7.18072
1.00565	7.20482
1.06215	7.25301
