Adsorption isotherm of Ethane on Ni-MOF-74 (2)
DOI: 10.1016/j.micromeso.2013.06.023
Adsorbate Ethane: InChIKey OTMSDBZUPAUEDD-UHFFFAOYSA-N
Temperature: 298 K
Tabular data in the source: 0
pressure (bar)	uptake (mmol/g)
0.0365397	0.636951
0.0706573	1.18614
0.102373	1.58182
0.141442	1.95585
0.168266	2.32943
0.19758	2.5716
0.23669	2.81413
0.268466	3.01255
0.302704	3.16722
0.334507	3.27797
0.363854	3.41055
0.398106	3.52139
0.469058	3.74316
0.537568	3.94292
0.601208	4.05484
0.669738	4.18885
0.738282	4.27902
0.801914	4.41286
0.868016	4.48102
0.931662	4.57102
1.01489	4.68365
1.07121	4.72954
