Adsorption isotherm of Nitrogen on Ni-MOF-74 (1)
DOI: 10.1016/j.micromeso.2013.06.023
Adsorbate Nitrogen: InChIKey IJGRMHOSHXDMSA-UHFFFAOYSA-N
Temperature: 77 K
Tabular data in the source: 0
pressure (bar)	uptake (cm3(STP)/g)
-0.00191243	2.8245
0.00109638	32.5827
0.0052514	73.6774
0.011269	133.194
0.0173365	171.464
0.0210617	208.307
0.0308107	239.512
0.0457239	256.574
0.0981634	275.217
0.1474	283.931
0.202661	287.005
0.24927	291.459
0.300133	294.514
0.47194	298.098
0.806615	303.811
0.879182	304.129
0.905569	304.244
0.956432	307.299
