Adsorption isotherm of Ethane on Mg-MOF-74 (4)
DOI: 10.1016/j.micromeso.2013.06.023
Adsorbate Ethane: InChIKey OTMSDBZUPAUEDD-UHFFFAOYSA-N
Temperature: 298 K
Tabular data in the source: 0
pressure (bar)	uptake (mmol/g)
0.131619	2.04316
0.168159	2.68012
0.199828	3.22922
0.233959	3.73457
0.273028	4.1086
0.302295	4.50419
0.334004	4.92179
0.368202	5.20797
0.402406	5.47223
0.468374	5.97875
0.53683	6.35386
0.600416	6.64111
0.666457	6.90654
0.73741	7.12831
0.801022	7.32789
0.86709	7.50565
0.930716	7.6614
1.01637	7.86179
1.07023	7.90759
