Adsorption isotherm of Methane on Mg-MOF-74 (4)
DOI: 10.1016/j.micromeso.2013.06.023
Adsorbate Methane: InChIKey VNWKTOKETHGBQD-UHFFFAOYSA-N
Temperature: 298 K
Tabular data in the source: 0
pressure (bar)	uptake (mmol/g)
0.129301	0.189831
0.174669	0.240194
0.206427	0.282809
0.23138	0.317676
0.26087	0.352542
0.297164	0.395157
0.333459	0.437772
0.369754	0.49201
0.401512	0.526877
0.467297	0.612107
0.53535	0.689588
0.605671	0.782567
0.666919	0.856174
0.73724	0.93753
0.803025	1.01889
0.871078	1.10412
0.934594	1.17772
1.01626	1.27845
1.06616	1.33656
