Adsorption isotherm of Ethane on Mg-MOF-74 (3)
DOI: 10.1016/j.micromeso.2013.06.023
Adsorbate Ethane: InChIKey OTMSDBZUPAUEDD-UHFFFAOYSA-N
Temperature: 298 K
Tabular data in the source: 0
pressure (bar)	uptake (mmol/g)
0.0731801	0.945139
0.102406	1.47223
0.139013	1.89001
0.170702	2.37336
0.199922	2.92237
0.23408	3.34006
0.265822	3.64807
0.299987	4.04384
0.334178	4.35193
0.365941	4.59419
0.400159	4.81462
0.468615	5.18972
0.529752	5.47689
0.603147	5.72066
0.671657	5.92043
0.735276	6.09809
0.798895	6.27576
0.872323	6.40995
0.93352	6.49985
1.01919	6.63449
1.06815	6.72395
