Adsorption isotherm of Ethene on Ni-MOF-74 (1)
DOI: 10.1016/j.micromeso.2013.06.023
Adsorbate Ethene: InChIKey VGGSQFUCUMXWEO-UHFFFAOYSA-N
Temperature: 298 K
Tabular data in the source: 0
pressure (bar)	uptake (mmol/g)
0.00260578	0.618557
0.0149579	0.953608
0.0272911	1.21134
0.0371197	1.26289
0.0690848	1.52062
0.0985896	1.75258
0.135437	1.90722
0.167371	2.03608
0.199298	2.13918
0.233666	2.19072
0.268041	2.26804
0.30241	2.31959
0.334324	2.37113
0.366239	2.42268
0.400613	2.5
0.469338	2.55155
0.535614	2.62887
0.601891	2.70619
0.668161	2.75773
0.734438	2.83505
0.803162	2.8866
0.866985	2.96392
0.935709	3.01546
1.01671	3.09278
1.07316	3.14433
