Adsorption isotherm of Nitrogen on Mg-MOF-74 (4)
DOI: 10.1016/j.micromeso.2013.06.023
Adsorbate Nitrogen: InChIKey IJGRMHOSHXDMSA-UHFFFAOYSA-N
Temperature: 298 K
Tabular data in the source: 0
pressure (bar)	uptake (mmol/g)
0.134857	0.178622
0.164571	0.224228
0.198857	0.277435
0.228571	0.311639
0.258286	0.357245
0.301714	0.40285
0.336	0.444656
0.363429	0.486461
0.402286	0.532067
0.464	0.619477
0.534857	0.706888
0.601143	0.786698
0.665143	0.862708
0.736	0.942518
0.797714	1.01853
0.868571	1.09834
0.937143	1.16295
1.01029	1.26176
1.06743	1.31876
