Adsorption isotherm of Methane on Mg-MOF-74 (3)
DOI: 10.1016/j.micromeso.2013.06.023
Adsorbate Methane: InChIKey VNWKTOKETHGBQD-UHFFFAOYSA-N
Temperature: 298 K
Tabular data in the source: 0
pressure (bar)	uptake (mmol/g)
0.0385633	0.0387409
0.0657845	0.0891041
0.099811	0.123971
0.131569	0.162712
0.165595	0.201453
0.199622	0.244068
0.229112	0.290557
0.267675	0.317676
0.299433	0.356416
0.333459	0.399031
0.369754	0.441646
0.399244	0.480387
0.465028	0.550121
0.530813	0.623729
0.598866	0.705085
0.666919	0.774818
0.732703	0.840678
0.800756	0.910412
0.871078	0.987893
0.934594	1.05375
1.00038	1.12349
1.01626	1.13898
1.07297	1.19709
