Adsorption isotherm of Carbon Dioxide on Ni-MOF-74 (2)
DOI: 10.1016/j.micromeso.2013.06.023
Adsorbate Carbon Dioxide: InChIKey CURLTUGMZLYLDI-UHFFFAOYSA-N
Temperature: 298 K
Tabular data in the source: 0
pressure (bar)	uptake (mmol/g)
0.0219512	0.798242
0.0292683	0.997846
0.0365854	1.31141
0.0682927	2.10988
0.097561	2.48095
0.131707	2.85213
0.170732	3.10947
0.2	3.33808
0.239024	3.53844
0.265854	3.71002
0.302439	3.82484
0.334146	3.96805
0.365854	4.11125
0.4	4.19753
0.465854	4.39852
0.531707	4.59952
0.597561	4.71504
0.663415	4.85906
0.734146	5.00318
0.8	5.1472
0.865854	5.29121
0.931707	5.37825
1.0122	5.52261
1.06829	5.6379
