Adsorption isotherm of N-propane on Mg-MOF-74 (4)
DOI: 10.1016/j.micromeso.2013.06.023
Adsorbate N-propane: InChIKey ATUOYWHBWRKTHZ-UHFFFAOYSA-N
Temperature: 298 K
Tabular data in the source: 0
pressure (bar)	uptake (mmol/g)
0.0135593	2.53012
0.0158192	3.95181
0.0316384	4.81928
0.0384181	5.39759
0.0677966	6.55422
0.099435	7.01205
0.128814	7.27711
0.158192	7.46988
0.19661	7.63855
0.232768	7.75904
0.264407	7.85542
0.305085	7.95181
0.334463	8.0241
0.366102	8.07229
0.40226	8.14458
0.465537	8.21687
0.526554	8.26506
0.60113	8.31325
0.666667	8.38554
0.732203	8.45783
0.80452	8.50602
0.865537	8.53012
0.931073	8.57831
1.01695	8.57831
1.06441	8.57831
