Adsorption isotherm of Ethane on Ni-MOF-74 (2)
DOI: 10.1016/j.micromeso.2013.06.023
Adsorbate Ethane: InChIKey OTMSDBZUPAUEDD-UHFFFAOYSA-N
Temperature: 298 K
Tabular data in the source: 0
pressure (bar)	uptake (mmol/g)
0.00488798	0.488798
0.01222	2.95187
0.0171079	2.60827
0.0195519	3.81182
0.0244399	4.06994
0.0317719	4.35682
0.0708758	4.87444
0.0953157	5.13349
0.13442	5.36459
0.168635	5.53814
0.200407	5.71158
0.234623	5.77052
0.266395	5.9153
0.300611	6.03155
0.334827	6.11914
0.366599	6.17797
0.400815	6.26556
0.466802	6.38332
0.535234	6.50121
0.598778	6.64751
0.66721	6.79404
0.738086	6.85473
0.799185	6.94361
0.867617	7.03284
0.933605	7.06464
1.01426	7.24041
1.06558	7.27152
