Adsorption isotherm of Nitrogen on Mg-MOF-74 (3)
DOI: 10.1016/j.micromeso.2013.06.023
Adsorbate Nitrogen: InChIKey IJGRMHOSHXDMSA-UHFFFAOYSA-N
Temperature: 298 K
Tabular data in the source: 0
pressure (bar)	uptake (mmol/g)
0.130286	0.155819
0.134857	0.167221
0.169143	0.216627
0.221714	0.266033
0.233143	0.273634
0.265143	0.31924
0.315429	0.376247
0.336	0.391449
0.365714	0.429454
0.4	0.463658
0.470857	0.532067
0.528	0.600475
0.596571	0.665083
0.665143	0.737292
0.733714	0.8019
0.804571	0.862708
0.870857	0.927316
0.934857	0.980523
1.01029	1.05273
1.072	1.10594
