Adsorption isotherm of Ethene on Mg-MOF-74 (4)
DOI: 10.1016/j.micromeso.2013.06.023
Adsorbate Ethene: InChIKey VGGSQFUCUMXWEO-UHFFFAOYSA-N
Temperature: 298 K
Tabular data in the source: 0
pressure (bar)	uptake (mmol/g)
0.0150655	1.39175
0.0253178	3.1701
0.030289	3.42784
0.0823035	5.3866
0.102037	5.79897
0.129119	6.15979
0.166024	6.54639
0.197976	6.75258
0.237303	7.01031
0.266783	7.13918
0.29871	7.24227
0.33065	7.39691
0.362583	7.52577
0.399412	7.60309
0.463272	7.83505
0.536924	7.96392
0.605667	8.09278
0.671956	8.22165
0.735785	8.32474
0.806976	8.42784
0.873265	8.5567
0.934628	8.60825
1.02054	8.68557
1.06718	8.76289
