Adsorption isotherm of Nitrogen on Ni-MOF-74 (2)
DOI: 10.1016/j.micromeso.2013.06.023
Adsorbate Nitrogen: InChIKey IJGRMHOSHXDMSA-UHFFFAOYSA-N
Temperature: 298 K
Tabular data in the source: 0
pressure (bar)	uptake (mmol/g)
0.032	0.0570071
0.0662857	0.0988124
0.0982857	0.136817
0.132571	0.178622
0.169143	0.224228
0.196571	0.273634
0.233143	0.315439
0.262857	0.353444
0.301714	0.40285
0.336	0.444656
0.365714	0.486461
0.404571	0.532067
0.468571	0.611876
0.534857	0.695487
0.596571	0.771496
0.669714	0.851306
0.736	0.927316
0.797714	1.00333
0.868571	1.08694
0.934857	1.15914
1.01257	1.23895
1.06743	1.30356
