Adsorption isotherm of Nitrogen on Ni-MOF-74 (2)
DOI: 10.1016/j.micromeso.2013.06.023
Adsorbate Nitrogen: InChIKey IJGRMHOSHXDMSA-UHFFFAOYSA-N
Temperature: 77 K
Tabular data in the source: 0
pressure (bar)	uptake (cm3(STP)/g)
-0.00105277	11.3268
0.019822	174.308
0.0291349	266.416
0.0325238	321.672
0.0381614	355.691
0.0442787	372.715
0.0539342	381.256
0.117511	401.364
0.16455	410.068
0.213071	411.697
0.25968	416.15
0.308343	419.196
0.429287	419.725
0.48015	422.78
0.550804	425.922
0.599182	426.133
0.647273	423.511
0.697992	425.149
0.746227	423.944
0.794605	424.155
0.842839	422.95
0.893416	423.171
0.941793	423.383
0.968181	423.498
