Adsorption isotherm of Ethane on Mg-MOF-74 (3)
DOI: 10.1016/j.micromeso.2013.06.023
Adsorbate Ethane: InChIKey OTMSDBZUPAUEDD-UHFFFAOYSA-N
Temperature: 298 K
Tabular data in the source: 0
pressure (bar)	uptake (mmol/g)
0.00488798	1.94866
0.00733198	2.75107
0.00977597	4.87153
0.014664	2.37892
0.0268839	6.36232
0.0342159	6.44863
0.0659878	6.85129
0.102648	7.02496
0.119756	7.14039
0.13442	7.2557
0.168635	7.4006
0.202851	7.4882
0.232179	7.57556
0.261507	7.63426
0.268839	7.66327
0.334827	7.75238
0.403259	7.87026
0.464358	7.93049
0.527902	7.99083
0.537678	8.01995
0.598778	8.05152
0.66721	8.1694
0.738086	8.20144
0.791853	8.26131
0.804073	8.26189
0.872505	8.29382
0.955601	8.38374
1.00448	8.41473
1.01426	8.38655
