Adsorption isotherm of N-propane on Ni-MOF-74 (2)
DOI: 10.1016/j.micromeso.2013.06.023
Adsorbate N-propane: InChIKey ATUOYWHBWRKTHZ-UHFFFAOYSA-N
Temperature: 298 K
Tabular data in the source: 0
pressure (bar)	uptake (mmol/g)
0.00451977	0.451977
0.00677966	2.07229
0.0112994	1.54217
0.0135593	2.33735
0.0180791	2.79518
0.0271186	3.03614
0.0338983	3.25301
0.0655367	3.71084
0.099435	3.9759
0.135593	4.21687
0.164972	4.36145
0.20113	4.48193
0.235028	4.57831
0.268927	4.6988
0.300565	4.74699
0.336723	4.81928
0.372881	4.91566
0.40678	5.01205
0.465537	5.13253
0.533333	5.20482
0.60113	5.3253
0.668927	5.37349
0.736723	5.44578
0.8	5.51807
0.867797	5.56627
0.933333	5.61446
1.01243	5.68675
1.06893	5.73494
