Adsorption isotherm of Carbon Dioxide on Mg-MOF-74 (4)
DOI: 10.1016/j.micromeso.2013.06.023
Adsorbate Carbon Dioxide: InChIKey CURLTUGMZLYLDI-UHFFFAOYSA-N
Temperature: 298 K
Tabular data in the source: 0
pressure (bar)	uptake (mmol/g)
0.00731707	1.11128
0.0097561	1.62416
0.0121951	2.13704
0.0146341	3.2767
0.0243902	4.61596
0.0292683	4.98645
0.0780488	6.52607
0.104878	6.89708
0.134146	7.15418
0.165854	7.43984
0.2	7.61159
0.234146	7.81183
0.270732	7.95515
0.3	8.09829
0.331707	8.24149
0.368293	8.29934
0.4	8.44255
0.465854	8.61505
0.536585	8.81616
0.6	8.96011
0.665854	9.13262
0.734146	9.27669
0.802439	9.47774
0.868293	9.59326
0.931707	9.76571
1.0122	9.88158
1.06585	10.0253
