Adsorption isotherm of Methane on Ni-MOF-74 (2)
DOI: 10.1016/j.micromeso.2013.06.023
Adsorbate Methane: InChIKey VNWKTOKETHGBQD-UHFFFAOYSA-N
Temperature: 298 K
Tabular data in the source: 0
pressure (bar)	uptake (mmol/g)
0.0113422	0.0387409
0.0294896	0.0697337
0.0612476	0.120097
0.099811	0.174334
0.127032	0.201453
0.165595	0.251816
0.199622	0.298305
0.23138	0.34092
0.265406	0.383535
0.299433	0.430024
0.335728	0.461017
0.367486	0.507506
0.399244	0.550121
0.471834	0.619855
0.533081	0.685714
0.603403	0.7477
0.666919	0.821308
0.734972	0.898789
0.800756	0.968523
0.868809	1.03826
0.934594	1.09637
1.01626	1.16998
1.07297	1.21646
