Adsorption isotherm of N-propane on Ni-MOF-74 (1)
DOI: 10.1016/j.micromeso.2013.06.023
Adsorbate N-propane: InChIKey ATUOYWHBWRKTHZ-UHFFFAOYSA-N
Temperature: 298 K
Tabular data in the source: 0
pressure (bar)	uptake (mmol/g)
0.00677966	0.361446
0.0112994	0.578313
0.0158192	0.819277
0.0316384	1.03614
0.0655367	1.25301
0.101695	1.37349
0.131073	1.46988
0.167232	1.54217
0.19887	1.61446
0.237288	1.63855
0.268927	1.71084
0.302825	1.71084
0.332203	1.78313
0.366102	1.83133
0.39548	1.83133
0.465537	1.90361
0.533333	1.92771
0.60113	2
0.666667	2.04819
0.736723	2.09639
0.79774	2.14458
0.867797	2.16867
0.933333	2.21687
1.01469	2.26506
1.06667	2.26506
