Adsorption isotherm of Ethane on Ni-MOF-74 (1)
DOI: 10.1016/j.micromeso.2013.06.023
Adsorbate Ethane: InChIKey OTMSDBZUPAUEDD-UHFFFAOYSA-N
Temperature: 298 K
Tabular data in the source: 0
pressure (bar)	uptake (mmol/g)
0.00975555	0.131863
0.0219533	0.285733
0.0439402	0.461879
0.0684029	0.550444
0.100172	0.770783
0.134417	0.90354
0.171111	1.03639
0.200479	1.10321
0.237193	1.17031
0.268996	1.28106
0.303261	1.34806
0.335077	1.41498
0.369356	1.43815
0.40607	1.50524
0.472178	1.5515
0.533375	1.6414
0.601926	1.70966
0.670483	1.756
0.731693	1.80207
0.800244	1.87033
0.871257	1.89484
0.934923	1.91908
1.01572	1.96587
1.06959	2.01167
