Adsorption isotherm of Carbon Dioxide on Mg-MOF-74 (3)
DOI: 10.1016/j.micromeso.2013.06.023
Adsorbate Carbon Dioxide: InChIKey CURLTUGMZLYLDI-UHFFFAOYSA-N
Temperature: 298 K
Tabular data in the source: 0
pressure (bar)	uptake (mmol/g)
0.00731707	1.6526
0.0097561	0.883423
0.0146341	2.76388
0.0243902	3.53334
0.0268293	4.16018
0.0317073	4.30275
0.0658537	5.30071
0.095122	5.84271
0.141463	6.21418
0.180488	6.41454
0.195122	6.47187
0.231707	6.67217
0.258537	6.78676
0.273171	6.84409
0.302439	6.95875
0.334146	7.07346
0.368293	7.15974
0.4	7.27445
0.465854	7.41847
0.526829	7.56237
0.539024	7.61963
0.602439	7.82057
0.663415	7.93598
0.731707	8.08005
0.787805	8.19534
0.802439	8.22418
0.870732	8.36825
0.931707	8.48366
1.00732	8.65639
1.01463	8.65657
1.06585	8.80023
