Adsorption isotherm of Nitrogen on Mg-MOF-74 (4)
DOI: 10.1016/j.micromeso.2013.06.023
Adsorbate Nitrogen: InChIKey IJGRMHOSHXDMSA-UHFFFAOYSA-N
Temperature: 77 K
Tabular data in the source: 0
pressure (bar)	uptake (cm3(STP)/g)
0.0350529	368.425
0.0351028	347.179
0.037825	374.103
0.0416	389.7
0.0433193	406.705
0.0482405	433.639
0.0536414	443.577
0.0632971	452.118
0.0928867	462.163
0.134954	465.18
0.177307	471.03
0.214548	469.777
0.276692	475.714
0.323014	477.333
0.536458	479.684
0.637898	482.96
0.677766	485.967
0.726143	486.179
0.779206	489.244
0.876104	491.084
0.922713	495.537
0.977971	498.612
