Adsorption isotherm of Carbon Dioxide on MIL-100(Cr), activated at 250C
DOI: 10.1021/acs.jced.9b00770
Article source: Table 6
Adsorbate Carbon Dioxide: InChIKey CURLTUGMZLYLDI-UHFFFAOYSA-N
Kind: experiment
Temperature: 298 K
Tabular data in the source: 0
pressure (bar)	uptake (mmol/g)
0.01009	1.19874
0.02626	1.41664
0.04954	1.61924
0.10082	1.90436
0.15063	2.1136
0.19904	2.29649
0.24916	2.53239
0.29938	2.75095
0.34998	2.951
0.39958	3.14029
0.50136	3.3149
0.60069	3.47706
0.70106	3.62751
0.80041	3.77465
0.90041	3.91123
0.99075	4.04699
