Adsorption isotherm of Nitrogen on MIL-100(Cr), activated at 150C
DOI: 10.1021/acs.jced.9b00770
Article source: Table 6
Adsorbate Nitrogen: InChIKey IJGRMHOSHXDMSA-UHFFFAOYSA-N
Kind: experiment
Temperature: 298 K
Tabular data in the source: 0
pressure (bar)	uptake (mmol/g)
0.01009	0.00146
0.02626	0.00476
0.04954	0.01
0.10082	0.01977
0.15063	0.0295
0.19904	0.039
0.24916	0.04843
0.29938	0.05794
0.34998	0.0669
0.39958	0.07583
0.50136	0.09398
0.60069	0.11166
0.70106	0.12807
0.80041	0.14418
0.90041	0.15967
0.99075	0.17343
