Adsorption isotherm of Carbon Dioxide, Nitrogen on MIL-100(Cr), activated at 250C
DOI: 10.1021/acs.jced.9b00770
Article source: Table S1
Adsorbate Carbon Dioxide: InChIKey CURLTUGMZLYLDI-UHFFFAOYSA-N
Adsorbate Nitrogen: InChIKey IJGRMHOSHXDMSA-UHFFFAOYSA-N
Kind: experiment
Temperature: 298 K
Tabular data in the source: 0
pressure (bar)	Carbon Dioxide fraction	Carbon Dioxide uptake (cm3(STP)/g)	Nitrogen fraction	Nitrogen uptake (cm3(STP)/g)	total uptake (cm3(STP)/g)
1	0.2	43.79	0.8	12.08	
