Adsorption isotherm of Nitrogen on MIL-100(Cr), activated at 250C
DOI: 10.1021/acs.jced.9b00770
Article source: Table 6
Adsorbate Nitrogen: InChIKey IJGRMHOSHXDMSA-UHFFFAOYSA-N
Kind: experiment
Temperature: 298 K
Tabular data in the source: 0
pressure (bar)	uptake (mmol/g)
0.01009	0.04797
0.02626	0.17535
0.04954	0.27295
0.10082	0.37471
0.15063	0.46247
0.19904	0.53331
0.24916	0.59552
0.29938	0.65108
0.34998	0.70219
0.39958	0.74769
0.50136	0.78891
0.60069	0.82606
0.70106	0.85939
0.80041	0.88904
0.90041	0.9126
0.99075	0.93757
