Adsorption isotherm of Methane on MIL-100(Cr), activated at 250C
DOI: 10.1021/acs.jced.9b00770
Article source: Table 6
Adsorbate Methane: InChIKey VNWKTOKETHGBQD-UHFFFAOYSA-N
Kind: experiment
Temperature: 298 K
Tabular data in the source: 0
pressure (bar)	uptake (mmol/g)
0.01009	0.00852
0.02626	0.02039
0.04954	0.03968
0.10082	0.07603
0.15063	0.11242
0.19904	0.14733
0.24916	0.18158
0.29938	0.21494
0.34998	0.24796
0.39958	0.28017
0.50136	0.34194
0.60069	0.40053
0.70106	0.45659
0.80041	0.51149
0.90041	0.56581
0.99075	0.61148
