Adsorption isotherm of Methane on MIL-100(Cr), activated at 150C
DOI: 10.1021/acs.jced.9b00770
Article source: Table 6
Adsorbate Methane: InChIKey VNWKTOKETHGBQD-UHFFFAOYSA-N
Kind: experiment
Temperature: 298 K
Tabular data in the source: 0
pressure (bar)	uptake (mmol/g)
0.01009	0.00253
0.02626	0.00781
0.04954	0.01696
0.10082	0.03471
0.15063	0.05263
0.19904	0.07056
0.24916	0.08791
0.29938	0.1053
0.34998	0.12126
0.39958	0.13825
0.50136	0.17014
0.60069	0.20379
0.70106	0.23362
0.80041	0.26438
0.90041	0.29526
0.99075	0.32251
