Adsorption isotherm of Carbon Dioxide on MIL-100(Cr), activated at 150C
DOI: 10.1021/acs.jced.9b00770
Article source: Table 6
Adsorbate Carbon Dioxide: InChIKey CURLTUGMZLYLDI-UHFFFAOYSA-N
Kind: experiment
Temperature: 298 K
Tabular data in the source: 0
pressure (bar)	uptake (mmol/g)
0.01009	0.19047
0.02626	0.26646
0.04954	0.39725
0.10082	0.57207
0.15063	0.70774
0.19904	0.83501
0.24916	1.002
0.29938	1.15838
0.34998	1.30094
0.39958	1.43735
0.50136	1.56611
0.60069	1.68122
0.70106	1.79208
0.80041	1.89651
0.90041	1.99604
0.99075	2.08968
