Adsorption isotherm of Hydrogen on C27H18Be3O9*3H2O
DOI: 10.1021/Ja9072707
Adsorbate Hydrogen: InChIKey UFHFLCQGNIYNRP-UHFFFAOYSA-N
Temperature: 298 K
Tabular data in the source: 0
pressure (bar)	uptake (wt%)
4.56204	0.0894656
8.94161	0.156348
13.3212	0.291104
17.5182	0.358028
21.7153	0.4702
25.9124	0.582373
29.7445	0.626755
33.9416	0.738927
37.9562	0.828517
42.1533	0.963314
45.9854	1.05294
50	1.14253
54.0146	1.25475
58.0292	1.34434
61.4964	1.45668
65.5109	1.54626
72.8102	1.72561
76.6423	1.83786
80.292	1.92754
84.1241	2.01717
87.5912	2.1295
91.0584	2.17397
94.8905	2.28622
