Adsorption isotherm of Hydrogen on C27H18Be3O9*3H2O
DOI: 10.1021/Ja9072707
Adsorbate Hydrogen: InChIKey UFHFLCQGNIYNRP-UHFFFAOYSA-N
Temperature: 77 K
Tabular data in the source: 0
pressure (bar)	uptake (wt%)
0.729927	1.49305
1.82482	2.4204
2.91971	3.21201
4.0146	3.75475
5.47445	4.27478
6.75182	4.68173
8.21168	5.02077
9.85401	5.29189
11.4964	5.49514
13.3212	5.67572
14.9635	5.81109
16.7883	5.83331
18.6131	5.92339
20.438	5.96823
22.2628	6.03569
24.4526	6.03519
26.2774	6.03478
28.1022	6.03437
30.1095	5.94341
31.9343	5.96563
34.1241	5.91988
35.9489	5.87422
38.1387	5.80585
40.3285	5.78273
42.7007	5.66907
45.073	5.62329
47.4453	5.53225
49.8175	5.44122
52.3723	5.39539
54.562	5.32702
56.9343	5.23599
60.4015	5.14471
64.0511	5.03076
67.7007	4.96206
71.1679	4.8029
75	4.68891
78.4672	4.59763
82.1168	4.43844
85.9489	4.32445
89.5985	4.23312
93.0657	4.07397
97.2628	3.93727
