Adsorption isotherm of Hydrogen on C27H18Be3O9*3H2O
DOI: 10.1021/Ja9072707
Adsorbate Hydrogen: InChIKey UFHFLCQGNIYNRP-UHFFFAOYSA-N
Temperature: 87 K
Tabular data in the source: 0
pressure (bar)	uptake (wt%)
0.0116505	0.0139373
0.0407767	0.0557491
0.061165	0.0836237
0.0990291	0.125436
0.133981	0.181185
0.166019	0.209059
0.200971	0.250871
0.230097	0.285714
0.267961	0.320557
0.332039	0.376307
0.393204	0.452962
0.466019	0.508711
0.530097	0.571429
0.594175	0.627178
0.661165	0.66899
0.725243	0.724739
0.745631	0.745645
0.792233	0.773519
0.859223	0.8223
0.926214	0.87108
0.993204	0.912892
1.05728	0.954704
1.11262	0.989547
1.18544	1.0453
