Adsorption isotherm of Hydrogen on C27H18Be3O9*3H2O
DOI: 10.1021/Ja9072707
Adsorbate Hydrogen: InChIKey UFHFLCQGNIYNRP-UHFFFAOYSA-N
Temperature: 298 K
Tabular data in the source: 0
pressure (bar)	uptake (wt%)
13.1387	0.0196519
17.1533	0.0866169
21.7153	0.153458
25.7299	0.197799
29.927	0.219474
33.9416	0.309063
38.3212	0.330697
42.1533	0.375078
45.9854	0.41946
50.1825	0.441135
53.8321	0.485558
57.8467	0.552523
61.3139	0.596988
65.5109	0.641287
69.1606	0.663086
72.9927	0.684843
76.8248	0.729225
80.1095	0.796355
83.9416	0.885986
87.7737	0.930368
91.2409	0.974832
95.073	0.99659
