Adsorption isotherm of Hydrogen on C27H18Be3O9*3H2O
DOI: 10.1021/Ja9072707
Adsorbate Hydrogen: InChIKey UFHFLCQGNIYNRP-UHFFFAOYSA-N
Temperature: 77 K
Tabular data in the source: 0
pressure (bar)	uptake (wt%)
0.729927	1.51567
1.82482	2.57877
2.91971	3.393
4.0146	4.02624
5.29197	4.61419
6.75182	5.11159
8.0292	5.4733
9.85401	5.88012
11.4964	6.17387
13.3212	6.42233
15.146	6.64816
16.7883	6.82878
18.2482	6.98682
20.438	7.16732
22.2628	7.32528
24.2701	7.46057
27.1898	7.57303
29.927	7.66291
31.9343	7.77558
33.7591	7.84304
35.9489	7.86517
37.7737	7.95525
40.146	8.02259
42.7007	8.06726
45.073	8.15722
47.6277	8.17927
50	8.22398
52.1898	8.26874
54.7445	8.33603
57.2993	8.40333
60.7664	8.47041
64.2336	8.5375
67.5182	8.62726
71.3504	8.69426
78.2847	8.82844
82.2993	8.94066
85.9489	8.96245
89.5985	9.07475
93.0657	9.09659
96.8978	9.1636
