Adsorption isotherm of Carbon Dioxide on Bituminous Coal
DOI: 10.1021/ef0600614
Article source: Table 3
Adsorbate Carbon Dioxide: InChIKey CURLTUGMZLYLDI-UHFFFAOYSA-N
Kind: experiment
Isotherm type: excess
Temperature: 326 K
Tabular data in the source: 1
pressure (bar)	uptake (kg/ton)
0	0
0.7	6.2
1.7	11.5
3.7	17.6
7.1	23.2
13	28.3
38.8	38.2
57.5	40.6
73.1	41.1
88.3	40.2
100.7	38.3
111.2	35.5
122.3	32.5
140.5	29.5
155.8	28.1
