Adsorption isotherm of Carbon Dioxide on Bituminous Coal
DOI: 10.1021/ef0600614
Article source: Table 3
Adsorbate Carbon Dioxide: InChIKey CURLTUGMZLYLDI-UHFFFAOYSA-N
Kind: experiment
Isotherm type: excess
Temperature: 326 K
Tabular data in the source: 1
pressure (bar)	uptake (kg/ton)
0	0
0.7	8.6
1.7	15.3
3.7	22.8
7.1	30.7
13	38.4
38.8	52.5
57.5	56.4
73.1	57.7
88.3	56.3
100.7	53.1
111.2	48.5
122.3	43.8
140.5	39.6
155.8	37.8
