Adsorption isotherm of Nitrogen on Bituminous Coal
DOI: 10.1021/ef0600614
Article source: Table 3
Adsorbate Nitrogen: InChIKey IJGRMHOSHXDMSA-UHFFFAOYSA-N
Kind: experiment
Isotherm type: excess
Temperature: 326 K
Tabular data in the source: 1
pressure (bar)	uptake (kg/ton)
0	0
2	0.7
3	1.2
6	2
11	3.5
20	5.7
34	7.6
47	9.2
61	10.4
74	11.3
89	12.2
101	12.9
117	13.4
126	13.7
135	14
143	13.9
155	14.4
158	14.4
175	14.9
191	15.2
