Adsorption isotherm of Nitrogen on Bituminous Coal
DOI: 10.1021/ef0600614
Article source: Table 3
Adsorbate Nitrogen: InChIKey IJGRMHOSHXDMSA-UHFFFAOYSA-N
Kind: experiment
Isotherm type: excess
Temperature: 326 K
Tabular data in the source: 1
pressure (bar)	uptake (kg/ton)
0	0
2	0.8
3	1.3
6	3
11	4.4
20	6.2
34	8
47	9.4
61	10.4
74	11.1
89	11.8
101	12.4
117	12.6
126	12.8
135	13.2
143	13.9
155	13.5
158	13.7
175	13.8
191	13.9
