Adsorption isotherm of Methane on Bituminous Coal
DOI: 10.1021/ef0600614
Article source: Table 3
Adsorbate Methane: InChIKey VNWKTOKETHGBQD-UHFFFAOYSA-N
Kind: experiment
Isotherm type: excess
Temperature: 326 K
Tabular data in the source: 1
pressure (bar)	uptake (kg/ton)
0	0
1	0.7
2	1.5
4	3.3
9	5.3
20	7.6
34	9.6
49	10.7
66	11.8
83	12.3
101	12.7
120	13
139	13.1
160	13.2
175	13.3
188	13.2
202	13.1
