Adsorption isotherm of Methane on Bituminous Coal
DOI: 10.1021/ef0600614
Article source: Table 3
Adsorbate Methane: InChIKey VNWKTOKETHGBQD-UHFFFAOYSA-N
Kind: experiment
Isotherm type: excess
Temperature: 326 K
Tabular data in the source: 1
pressure (bar)	uptake (kg/ton)
0	0
1	0.8
2	1.7
4	3.6
9	5.8
20	8.3
34	10.1
49	11.3
66	12.3
83	12.7
101	13.1
120	13.2
139	13.2
160	13.3
175	13.3
188	13.1
202	13.1
