Adsorption isotherm of Carbon Dioxide on Bituminous Coal
DOI: 10.1021/ef0600614
Article source: Table 3
Adsorbate Carbon Dioxide: InChIKey CURLTUGMZLYLDI-UHFFFAOYSA-N
Kind: experiment
Isotherm type: excess
Temperature: 326 K
Tabular data in the source: 1
pressure (bar)	uptake (kg/ton)
0	0
0.7	10.4
1.7	17.5
3.7	26.1
7.1	34.9
13	43.2
38.8	58
57.5	61.9
73.1	62.9
88.3	61.3
100.7	57.8
111.2	52.6
122.3	47.3
140.5	42.3
155.8	40
