Adsorption isotherm of Methane on Bituminous Coal
DOI: 10.1021/ef0600614
Article source: Table 3
Adsorbate Methane: InChIKey VNWKTOKETHGBQD-UHFFFAOYSA-N
Kind: experiment
Isotherm type: excess
Temperature: 326 K
Tabular data in the source: 1
pressure (bar)	uptake (kg/ton)
0	0
2	0.9
3	1.5
6	2
11	3.7
20	5.9
34	7.8
47	9.4
61	10.6
74	11.3
89	12.2
101	12.7
117	13.1
126	13.3
135	13.5
143	13.4
155	13.7
158	13.8
175	14
191	14.2
