Adsorption isotherm of Nitrogen on LZU-568
DOI: 10.1021/jacs.0c10919
Article source: Figure S94
Adsorbate Nitrogen: InChIKey IJGRMHOSHXDMSA-UHFFFAOYSA-N
Kind: experiment
Temperature: 77 K
Tabular data in the source: 0
pressure (bar)	uptake (cm3(STP)/g)
0	4.71698
0	7.49168
0.001605	45.505
0.004814	55.2164
0.008023	62.4306
0.012034	65.7603
0.019254	71.3097
0.030486	75.7492
0.037706	78.8013
0.044926	81.8535
0.050542	84.3507
0.059367	86.8479
0.080226	92.1199
0.100282	97.3918
0.120338	102.664
0.140395	107.936
0.161254	113.208
0.180508	119.034
0.201366	125.416
0.2487	157.325
0.300846	168.979
0.351388	175.638
0.401931	180.633
0.453275	185.072
0.502213	188.957
0.553557	192.286
0.603297	195.616
0.654641	198.391
0.705986	201.165
0.754923	203.94
0.806268	206.992
0.826324	209.212
0.855205	211.432
0.880878	213.374
0.904945	215.039
0.93142	217.259
0.955488	220.033
0.98116	223.085
0.986776	224.75
0.997205	227.802
0	31.909
0	50.4994
0.002407	61.0433
0.003209	68.2575
0.004011	71.5871
0.006418	75.7492
0.008023	79.3563
0.008825	81.2986
0.021661	91.8424
0.031288	99.3341
0.039311	104.606
0.051344	109.6
0.060971	114.04
0.072203	119.867
0.096271	129.023
0.141197	145.117
0.157242	151.221
0.171683	157.603
0.201366	169.534
0.2134	175.638
0.229445	186.737
0.251909	206.16
0.302451	210.044
0.353795	213.097
0.404337	215.039
0.453275	217.259
0.504619	218.923
0.555162	220.588
0.605704	221.421
0.656246	222.808
0.706788	224.473
0.759737	225.583
0.788618	226.138
0.834347	227.247
0.886493	228.08
0.914572	228.635
0.939442	228.912
0.974742	230.855
1.00202	233.629
