Adsorption isotherm of Nitrogen on LZU-567
DOI: 10.1021/jacs.0c10919
Article source: Figure S81
Adsorbate Nitrogen: InChIKey IJGRMHOSHXDMSA-UHFFFAOYSA-N
Kind: experiment
Temperature: 77 K
Tabular data in the source: 0
pressure (bar)	uptake (cm3(STP)/g)
0	1.875
0	4.53947
0	3.1579
0.000797	13.0263
0.001594	16.0855
0.003986	19.7368
0.007175	21.3158
0.009566	22.3026
0.018336	24.4737
0.028699	26.3487
0.036672	27.4342
0.044644	28.4211
0.053413	29.3092
0.060588	30
0.079721	31.7763
0.101245	33.4539
0.121175	35.2303
0.140308	37.0066
0.161036	38.7829
0.181763	40.7566
0.200099	43.0263
0.25112	49.0461
0.302939	50.9211
0.354757	52.0066
0.404184	52.7961
0.455205	53.3882
0.506226	53.6842
0.558045	54.1776
0.608269	54.5724
0.658493	54.9671
0.708717	55.3618
0.759738	55.8553
0.809962	56.25
0.829892	56.8421
0.860983	57.5329
0.886494	58.125
0.91041	58.8158
0.936718	59.5066
0.962229	61.1842
0.986942	65.7237
0.99332	69.0789
1.00209	77.4671
0	14.7039
0.000797	20.1316
0.002392	22.5987
0.003189	24.5724
0.00558	25.7566
0.006378	26.7434
0.007175	28.0263
0.008769	28.9145
0.009566	29.6053
0.020727	32.8618
0.031091	34.8355
0.041455	36.2171
0.052616	37.5
0.060588	38.7829
0.073343	40.0658
0.095665	42.4342
0.140308	46.5789
0.156253	47.7632
0.171399	49.2434
0.201693	52.4013
0.213651	53.9803
0.228001	55.9539
0.253512	58.3224
0.303736	59.3092
0.330841	59.7039
0.404184	59.9013
0.455205	60.0987
0.506226	60.6908
0.557248	60.6908
0.607472	60.8882
0.635374	60.9868
0.709514	61.0855
0.738214	61.1842
0.812354	61.4803
0.840256	61.5789
0.864172	61.6776
0.889683	62.0724
0.915194	62.8618
0.943096	64.5395
0.986145	73.0263
1.00767	87.6316
