Adsorption isotherm of Nitrogen on LZU-566
DOI: 10.1021/jacs.0c10919
Article source: Figure S68
Adsorbate Nitrogen: InChIKey IJGRMHOSHXDMSA-UHFFFAOYSA-N
Kind: experiment
Temperature: 77 K
Tabular data in the source: 0
pressure (bar)	uptake (cm3(STP)/g)
0	1.08967
0.002405	6.81044
0.002405	9.87514
0.00481	12.1226
0.008016	13.8252
0.010421	14.7787
0.022445	16.2089
0.03447	17.2985
0.043288	18.1158
0.052907	18.6606
0.060923	19.1373
0.080964	20.227
0.101004	21.4529
0.121045	22.5426
0.141085	23.7003
0.161928	24.9943
0.181167	26.2202
0.202009	27.6504
0.249304	35.8229
0.323855	38.6152
0.354317	39.7049
0.404017	40.6583
0.453718	41.4756
0.505823	42.4291
0.557127	43.1101
0.606828	43.7911
0.658132	44.4041
0.708634	45.0851
0.759136	45.6981
0.81044	46.2429
0.829679	46.8558
0.860942	47.4007
0.886594	47.9455
0.910642	48.4904
0.937096	49.2395
0.961145	50.1249
0.985193	52.3723
0.992408	53.9387
1.00203	57.3439
0	10.0795
0.001603	13.076
0.002405	15.5278
0.004008	17.0261
0.00481	17.5709
0.007215	18.4563
0.008016	19.6141
0.009619	20.0908
0.011223	20.5675
0.022445	22.6788
0.031263	24.0409
0.040883	25.1986
0.051304	26.1521
0.062527	27.3099
0.073749	28.5358
0.098599	30.5789
0.141085	34.1203
0.157118	35.3462
0.172349	36.6402
0.201207	39.4325
0.21243	40.5902
0.228462	43.6549
0.252511	48.0136
0.303013	48.6947
0.353515	49.3757
0.404819	49.6481
0.45452	50.0568
0.505823	50.6016
0.557127	50.8059
0.606828	51.1464
0.656528	51.3507
0.708634	51.4188
0.757533	51.6913
0.786391	51.7594
0.836092	51.9637
0.862545	51.9637
0.887395	52.0999
0.913047	52.2361
0.940302	52.6447
0.98359	55.7775
1.00764	62.3837
