Adsorption isotherm of Nitrogen on LZU-564
DOI: 10.1021/jacs.0c10919
Article source: Figure S42
Adsorbate Nitrogen: InChIKey IJGRMHOSHXDMSA-UHFFFAOYSA-N
Kind: experiment
Temperature: 77 K
Tabular data in the source: 0
pressure (bar)	uptake (cm3(STP)/g)
0	2.34467
0	5.6272
0	7.50293
0	11.7233
0	15.4748
0	18.2884
0	22.5088
0.001576	54.8652
0.002364	64.2438
0.004727	74.0914
0.007879	80.1876
0.009455	82.5322
0.019698	94.0211
0.029941	103.165
0.03782	109.496
0.044911	115.826
0.052002	121.454
0.059881	125.44
0.081155	130.129
0.100064	132.943
0.119762	135.053
0.141823	136.694
0.161521	138.335
0.182007	139.742
0.202492	141.149
0.252131	143.962
0.303345	146.073
0.355347	147.714
0.403409	149.59
0.454623	150.996
0.506625	152.169
0.557839	153.341
0.607477	154.513
0.658691	155.686
0.709905	156.858
0.759544	158.499
0.811545	159.906
0.831243	161.313
0.861972	162.72
0.887185	164.127
0.91161	165.533
0.937611	168.113
0.962824	172.567
0.986461	181.477
0.991189	185.698
1.0038	196.249
0	57.6788
0.001576	74.0914
0.002364	80.422
0.00394	86.9871
0.004727	93.3177
0.005515	90.0352
0.010243	95.6624
0.011031	98.7104
0.020486	110.199
0.030728	118.875
0.040971	128.019
0.052002	135.991
0.059881	141.149
0.072488	143.962
0.096125	147.479
0.141823	150.996
0.156794	151.7
0.171764	152.872
0.202492	153.81
0.215887	154.513
0.227705	154.982
0.252919	155.686
0.303345	157.093
0.353771	158.265
0.404197	158.734
0.455411	159.906
0.505837	161.313
0.557051	162.251
0.606689	163.189
0.657115	163.658
0.709117	164.83
0.759544	166.002
0.786332	166.706
0.813121	167.409
0.838334	168.347
0.863547	168.816
0.890336	170.223
0.915549	171.63
0.943126	173.271
0.986461	185.229
1.00852	207.503
