Adsorption isotherm of Nitrogen on LZU-562
DOI: 10.1021/jacs.0c10919
Article source: Figure S16
Adsorbate Nitrogen: InChIKey IJGRMHOSHXDMSA-UHFFFAOYSA-N
Kind: experiment
Temperature: 77 K
Tabular data in the source: 0
pressure (bar)	uptake (cm3(STP)/g)
0	6.5962
0	11.8393
0	31.4588
0	9.13319
0.003204	36.7019
0.006408	44.8203
0.00801	46.8499
0.020025	52.7696
0.028836	57.167
0.037646	60.7188
0.044054	64.4397
0.052064	68.4989
0.060074	72.2199
0.080099	78.4778
0.100925	81.6913
0.12175	84.3975
0.141775	86.7653
0.1618	88.9641
0.181824	90.4863
0.201849	92.5159
0.253112	96.4059
0.354037	103.002
0.4053	105.201
0.456563	107.4
0.558289	111.121
0.607149	113.15
0.658412	115.011
0.709675	116.702
0.759337	118.562
0.811401	120.254
0.830625	121.607
0.861863	122.96
0.886694	124.482
0.910724	126.173
0.937156	128.034
0.961987	130.063
0.987618	133.108
0.992424	134.292
1.00284	139.197
0	23.1712
0.001602	32.981
0.002403	38.2241
0.004806	41.7759
0.004806	43.4672
0.006408	45.4968
0.00801	47.6956
0.009612	49.2178
0.011214	50.5708
0.021627	57.167
0.032841	62.0719
0.041651	67.6533
0.051263	73.4038
0.061676	78.4778
0.073691	82.3679
0.096119	85.7505
0.141775	90.4863
0.156994	91.8393
0.171411	92.8541
0.201849	94.8837
0.214665	95.8985
0.227481	96.7442
0.252311	97.9281
0.302774	100.296
0.354037	102.495
0.404499	104.355
0.454961	106.723
0.506225	109.429
0.556687	111.628
0.607149	113.827
0.658412	116.195
0.708074	118.731
0.758536	121.099
0.788172	122.622
0.836232	124.482
0.860261	125.328
0.865067	125.835
0.889097	126.85
0.914728	128.203
0.939559	129.894
0.982011	134.123
1.00764	147.315
