Adsorption isotherm of Nitrogen on LZU-565
DOI: 10.1021/jacs.0c10919
Article source: Figure S55
Adsorbate Nitrogen: InChIKey IJGRMHOSHXDMSA-UHFFFAOYSA-N
Kind: experiment
Temperature: 77 K
Tabular data in the source: 0
pressure (bar)	uptake (cm3(STP)/g)
0	1.93411
0	7.95962
0.000812	1.19022
0.001624	11.6791
0.004059	14.1339
0.005683	15.8448
0.010555	17.1095
0.019486	18.4485
0.032476	19.9362
0.043031	20.9033
0.051962	21.4984
0.060081	22.0935
0.079566	23.3581
0.100675	24.6227
0.120973	25.8874
0.14127	27.152
0.161568	28.5654
0.181865	30.1275
0.202163	31.7641
0.249253	40.4676
0.325572	42.6993
0.3548	43.8151
0.405138	44.7078
0.480644	45.3029
0.53017	45.8236
0.559398	46.5675
0.609736	46.7906
0.683619	47.0882
0.734769	47.6089
0.762373	47.9065
0.814335	48.3528
0.832197	48.7991
0.863049	49.2455
0.888218	49.6918
0.914198	50.1381
0.939367	51.0308
0.96616	51.9235
0.989705	54.3039
0.993764	55.4942
1.00351	59.9575
0	8.85229
0	12.7949
0.001624	15.4729
0.003248	17.1838
0.004871	18.2997
0.007307	19.6387
0.007307	20.5313
0.008931	21.2752
0.010555	21.7216
0.021921	24.1764
0.031664	26.1849
0.041407	27.5239
0.05115	28.7141
0.062516	29.9044
0.073071	30.9458
0.096616	33.3262
0.140459	37.1945
0.155885	38.5335
0.172123	39.7981
0.201351	42.9224
0.214341	44.3358
0.229767	47.3858
0.253312	52.1467
0.30365	52.593
0.331255	52.8905
0.405138	52.9649
0.457099	52.9649
0.483892	53.1137
0.557775	53.1137
0.585379	53.1137
0.635717	53.1881
0.686867	53.0393
0.737204	52.9649
0.811899	52.9649
0.839504	52.9649
0.865484	52.9649
0.890653	53.0393
0.915822	53.1881
0.943427	53.7832
0.984834	58.2465
1.00838	66.8757
