Adsorption isotherm of Nitrogen on LZU-561
DOI: 10.1021/jacs.0c10919
Article source: Figure S4
Adsorbate Nitrogen: InChIKey IJGRMHOSHXDMSA-UHFFFAOYSA-N
Kind: experiment
Temperature: 77 K
Tabular data in the source: 0
pressure (bar)	uptake (cm3(STP)/g)
0	7.19201
0	13.0522
0	14.7836
0	19.3119
0	3.06326
0.000815	5.59378
0.000815	8.65705
0.000815	17.98
0.000815	38.6238
0.002444	43.818
0.004073	48.7458
0.007331	53.2741
0.00896	55.8047
0.020363	60.7325
0.029322	65.1276
0.037467	68.3241
0.045613	71.2542
0.052943	74.0511
0.060274	75.7825
0.080636	78.313
0.100999	79.9112
0.120547	81.2431
0.141725	82.4417
0.161273	83.374
0.181636	84.4395
0.201998	85.3718
0.252498	87.1032
0.302998	88.5683
0.354312	89.7669
0.404811	90.6992
0.454496	91.4983
0.506625	92.2974
0.55631	92.8302
0.607624	93.0966
0.658124	93.7625
0.709438	94.2952
0.759937	95.0943
0.810437	95.6271
0.8308	96.4262
0.859308	97.0921
0.886186	97.8912
0.912251	98.8235
0.936686	99.7558
0.96275	101.221
0.988	104.284
0.992887	105.882
1.00266	110.277
0.000815	37.5583
0.000815	46.2153
0.001629	51.1432
0.003258	54.7392
0.004887	56.737
0.006516	58.7347
0.007331	60.5993
0.00896	62.0644
0.010589	63.1299
0.021992	70.1887
0.030137	74.9834
0.040725	79.5117
0.0505	82.9745
0.060274	85.7714
0.070862	87.2364
0.095298	89.2342
0.14091	91.6315
0.154757	92.4306
0.170233	92.9634
0.202813	93.8957
0.213402	94.2952
0.225619	94.5616
0.250869	95.2275
0.302183	96.0266
0.353497	96.8258
0.403182	97.3585
0.454496	97.8912
0.504996	98.9567
0.555496	99.6226
0.60681	99.889
0.657309	100.555
0.707809	100.821
0.736317	101.088
0.810437	101.754
0.83813	102.153
0.86338	102.42
0.88863	102.686
0.91388	103.352
0.939944	104.018
0.981484	106.815
1.00673	116.271
