Adsorption isotherm of Nitrogen on LZU-563
DOI: 10.1021/jacs.0c10919
Article source: Figure S29
Adsorbate Nitrogen: InChIKey IJGRMHOSHXDMSA-UHFFFAOYSA-N
Kind: experiment
Temperature: 77 K
Tabular data in the source: 0
pressure (bar)	uptake (cm3(STP)/g)
0	1.58562
0	4.22833
0	10.3066
0	12.685
0	15.3277
0	19.2918
0	29.0698
0	6.87104
0.00081	24.8414
0.00081	63.4249
0.00567	82.4524
0.009719	91.9662
0.018629	100.687
0.029968	108.879
0.036448	114.165
0.043737	120.243
0.053457	125.529
0.059126	128.964
0.080995	134.249
0.101244	136.892
0.121493	138.742
0.142552	140.592
0.16199	142.178
0.181429	143.499
0.202488	144.82
0.252705	146.934
0.303732	149.049
0.354759	150.899
0.404166	152.22
0.454383	153.805
0.50622	155.127
0.557247	156.184
0.607464	156.977
0.658491	158.562
0.709518	159.619
0.758925	161.205
0.809142	162.791
0.830201	164.641
0.860979	166.755
0.886088	168.869
0.912006	172.04
0.937115	176.004
0.962223	183.14
0.986522	197.41
0.992191	207.188
1.00191	221.195
0.00081	54.4397
0.00162	70.296
0.00243	77.6956
0.00405	83.7738
0.00486	86.4165
0.00648	89.3235
0.00729	95.666
0.0081	96.9873
0.010529	99.3658
0.020249	110.201
0.029968	118.129
0.041308	126.321
0.051027	133.721
0.060746	139.006
0.072086	142.178
0.096384	145.877
0.140932	149.841
0.156321	150.899
0.17171	152.22
0.201678	153.277
0.213017	154.334
0.226787	154.863
0.251895	155.92
0.302922	157.505
0.353139	159.091
0.403356	159.619
0.454383	161.205
0.5046	164.376
0.555627	165.433
0.605844	166.226
0.656871	167.019
0.709518	168.076
0.758925	169.662
0.787273	170.719
0.812382	171.776
0.83749	173.097
0.863409	174.947
0.889327	177.326
0.916056	181.29
0.946834	189.218
0.985712	214.588
1.00596	239.165
