Adsorption isotherm of Phosphate Ion on Dimethylamine-(Zr-OH)
DOI: 10.1021/acs.iecr.7b01523
Article source: Figure 1
Adsorbate Phosphate Ion: InChIKey NBIIXXVUZAFLBC-UHFFFAOYSA-K
Kind: experiment
Temperature: 298 K
Tabular data in the source: 0
pressure (bar)	uptake ()
1.01325	21.162
1.01325	39.597
1.01325	89.461
1.01325	103.159
1.01325	128.763
1.01325	148.734
