Adsorption isotherm of Phosphate Ion on pure-(Zr-OH)
DOI: 10.1021/acs.iecr.7b01523
Article source: Figure 1
Adsorbate Phosphate Ion: InChIKey NBIIXXVUZAFLBC-UHFFFAOYSA-K
Kind: experiment
Temperature: 298 K
Tabular data in the source: 0
pressure (bar)	uptake ()
1.01325	15.191
1.01325	27.333
1.01325	52.837
1.01325	68.841
1.01325	80.983
1.01325	91.957
1.01325	98.968
