Adsorption isotherm of Phosphate Ion on N-Methylaniline-(Zr-OH)
DOI: 10.1021/acs.iecr.7b01523
Article source: Figure 1
Adsorbate Phosphate Ion: InChIKey NBIIXXVUZAFLBC-UHFFFAOYSA-K
Kind: experiment
Temperature: 298 K
Tabular data in the source: 0
pressure (bar)	uptake ()
1.01325	14.447
1.01325	32.835
1.01325	44.77
1.01325	54.69
1.01325	69.771
1.01325	79.61
1.01325	89.288
