Adsorption isotherm of Phosphate Ion on Diethylamine-(Zr-OH)
DOI: 10.1021/acs.iecr.7b01523
Article source: Figure 1
Adsorbate Phosphate Ion: InChIKey NBIIXXVUZAFLBC-UHFFFAOYSA-K
Kind: experiment
Temperature: 298 K
Tabular data in the source: 0
pressure (bar)	uptake (mg/g)
1.01325	32.139
1.01325	41.325
1.01325	54.895
1.01325	64.721
1.01325	64.529
1.01325	64.817
1.01325	64.849
