Adsorption isotherm of Phosphate Ion on N-Ethylmethylamine-(Zr-OH)
DOI: 10.1021/acs.iecr.7b01523
Article source: Figure 1
Adsorbate Phosphate Ion: InChIKey NBIIXXVUZAFLBC-UHFFFAOYSA-K
Kind: experiment
Temperature: 298 K
Tabular data in the source: 0
pressure (bar)	uptake ()
1.01325	15.913
1.01325	30.571
1.01325	48.622
1.01325	68.401
1.01325	75.186
1.01325	81.395
1.01325	86.132
