Adsorption isotherm of Hydrogen on MOF-177
DOI: 10.1016/j.ijhydene.2014.07.028
Adsorbate Hydrogen: InChIKey UFHFLCQGNIYNRP-UHFFFAOYSA-N
Temperature: 77 K
Tabular data in the source: 0
pressure (bar)	uptake (mg/g)
8.07175e-11	10.7429
2.21973e-10	20.3429
4.03587e-10	28.8
5.24664e-10	32.9143
6.86099e-10	38.8571
8.07175e-10	42.9714
1.04933e-09	48.9143
1.2713e-09	53.0286
1.53363e-09	56.9143
1.97758e-09	60.8
2.48206e-09	64.9143
3.39013e-09	69.9429
4.52018e-09	73.6
5.7713e-09	75.8857
6.82063e-09	75.6571
7.76906e-09	75.2
8.75785e-09	73.1429
