Adsorption isotherm of Hydrogen on IRMOF-1
DOI: 10.1016/j.ijhydene.2014.07.028
Adsorbate Hydrogen: InChIKey UFHFLCQGNIYNRP-UHFFFAOYSA-N
Temperature: 77 K
Tabular data in the source: 0
pressure (bar)	uptake (mg/g)
9.83296e-11	9.6
1.97356e-10	17.1429
3.57272e-10	24.8571
4.77717e-10	29.1429
7.59703e-10	36.3429
1.02219e-09	41.1429
1.28508e-09	44.7429
1.589e-09	47.1429
1.93374e-09	49.0286
2.25821e-09	50.7429
2.62355e-09	51.7714
3.04984e-09	52.8
3.45605e-09	53.1429
3.94351e-09	53.4857
4.63426e-09	53.4857
5.93483e-09	52.4571
6.64624e-09	51.4286
7.35765e-09	50.4
7.86579e-09	49.7143
8.55676e-09	49.0286
