Adsorption isotherm of Hydrogen on MOF-210
DOI: 10.1016/j.ijhydene.2014.07.028
Adsorbate Hydrogen: InChIKey UFHFLCQGNIYNRP-UHFFFAOYSA-N
Temperature: 77 K
Tabular data in the source: 0
pressure (bar)	uptake (mg/g)
8.12641e-11	10.758
1.0158e-10	0.262391
3.65688e-10	29.1254
9.75169e-10	48.0175
1.6456e-09	62.449
2.2754e-09	71.6327
2.64108e-09	75.5685
3.10835e-09	78.7172
4.02257e-09	83.1778
4.48984e-09	84.7522
5.03837e-09	85.8017
5.54628e-09	86.3265
6.03386e-09	86.0641
6.50113e-09	86.0641
7.02935e-09	85.5394
7.55756e-09	84.4898
8.00451e-09	83.7026
