Adsorption isotherm of Hydrogen on MOF-205
DOI: 10.1016/j.ijhydene.2014.07.028
Adsorbate Hydrogen: InChIKey UFHFLCQGNIYNRP-UHFFFAOYSA-N
Temperature: 77 K
Tabular data in the source: 0
pressure (bar)	uptake (mg/g)
4.08163e-11	1.38329
6.12245e-11	9.683
1.22449e-10	16.5994
2.44898e-10	26.513
3.26531e-10	34.3516
5.30612e-10	38.9625
6.32653e-10	42.6513
8.16327e-10	47.4928
1.08163e-09	53.487
1.30612e-09	56.9452
1.63265e-09	60.4035
1.95918e-09	63.6311
2.22449e-09	65.4755
2.63265e-09	68.4726
3.10204e-09	69.6254
3.53061e-09	70.5476
4e-09	70.5476
4.63265e-09	70.5476
5.34694e-09	69.3948
5.95918e-09	68.7032
6.61224e-09	67.3199
7.30612e-09	66.1671
8.04082e-09	64.7839
8.57143e-09	64.0922
