Adsorption isotherm of Hydrogen on MOF-200
DOI: 10.1016/j.ijhydene.2014.07.028
Adsorbate Hydrogen: InChIKey UFHFLCQGNIYNRP-UHFFFAOYSA-N
Temperature: 77 K
Tabular data in the source: 0
pressure (bar)	uptake (mg/g)
4.03059e-11	0.925891
1.19102e-10	9.94526
3.99369e-10	23.8253
8.41797e-10	37.7095
1.42658e-09	49.7476
2.13358e-09	59.4768
2.43693e-09	62.2591
2.94251e-09	66.8964
3.46877e-09	69.9157
4.0965e-09	72.4752
4.56225e-09	74.3369
5.08927e-09	74.3504
5.57575e-09	74.3629
6.06235e-09	73.913
6.50841e-09	73.462
7.4208e-09	72.5606
8.00876e-09	72.1133
