Adsorption isotherm of Methanol on ZIF-8
DOI: 10.1002/adfm.201400559
Adsorbate Methanol: InChIKey OKKJLVBELUTLKV-UHFFFAOYSA-N
Temperature: 298 K
Tabular data in the source: 0
pressure (bar)	uptake (g/g)
1.68031	0.0632773
3.4728	0.254835
5.16885	0.295668
6.88565	0.324745
8.56876	0.337786
10.2801	0.355105
11.9647	0.371352
13.7022	0.388674
15.3631	0.410263
16.2061	0.41999
