Adsorption isotherm of Methanol on ZIF-8 (QCM)
DOI: 10.1002/adfm.201400559
Adsorbate Methanol: InChIKey OKKJLVBELUTLKV-UHFFFAOYSA-N
Temperature: 298 K
Tabular data in the source: 0
pressure (bar)	uptake (g/g)
0.292243	0.00858815
0.819335	0.0150683
1.67533	0.0525879
3.48057	0.215287
5.22555	0.248644
6.91314	0.271305
8.54136	0.278993
10.2774	0.293109
11.9872	0.307222
13.6703	0.320262
15.302	0.335433
16.1708	0.344094
