Adsorption isotherm of Nitrogen on RF-ACX
DOI: 10.1007/s10450-017-9908-z
Article source: Figure 1
Adsorbate Nitrogen: InChIKey IJGRMHOSHXDMSA-UHFFFAOYSA-N
Kind: experiment
Isotherm type: excess
Temperature: 77 K
Tabular data in the source: 0
pressure (bar)	uptake (mmol/g)
0	3.19091
0.003269	5.83636
0.02288	6.19091
0.031051	6.25455
0.062102	6.36364
0.081714	6.4
0.101325	6.43636
0.120936	6.46364
0.142182	6.49091
0.160159	6.50909
0.17977	6.51818
0.201016	6.52727
0.251678	6.56364
0.302341	6.59091
0.353003	6.60909
0.402031	6.61818
0.454328	6.62727
0.503356	6.63636
0.554019	6.64545
0.604681	6.65454
0.655344	6.65454
0.725618	6.65454
0.766475	6.66364
0.777915	6.66364
0.808966	6.66364
0.848188	6.67273
0.8678	6.66364
0.884142	6.68182
0.920096	6.68182
0.933171	6.69091
0.94461	6.69091
0.95605	6.69091
0.965856	6.7
0.97893	6.70909
0.99037	6.71818
1.00018	6.71818
0.014708	6.20909
0.031051	6.31818
0.047394	6.38182
0.062102	6.42727
0.078445	6.46364
0.093154	6.49091
0.109496	6.50909
0.124205	6.53636
0.140548	6.54545
0.201016	6.6
0.251678	6.61818
0.303975	6.64545
0.353003	6.65454
0.403666	6.67273
0.455962	6.69091
0.504991	6.7
0.555653	6.70909
0.588339	6.71818
0.635733	6.71818
0.689664	6.71818
0.728886	6.71818
0.759937	6.70909
0.78772	6.71818
0.808966	6.71818
0.831846	6.71818
0.864531	6.71818
0.895582	6.72727
0.915194	6.71818
0.938073	6.71818
0.959319	6.71818
0.97893	6.71818
1.00018	6.72727
