Adsorption isotherm of Nitrogen on RF-ACX
DOI: 10.1007/s10450-017-9908-z
Article source: Figure 4c
Adsorbate Nitrogen: InChIKey IJGRMHOSHXDMSA-UHFFFAOYSA-N
Kind: experiment
Isotherm type: absolute
Temperature: 323 K
Tabular data in the source: 0
pressure (bar)	uptake (mmol/g)
0.0397	0.0031
1.8808	0.33378
2.8865	0.49081
3.8753	0.63803
4.8892	0.77057
5.8904	0.88644
6.8968	1.01158
7.8986	1.12541
8.8791	1.23923
9.8809	1.36293
