Adsorption isotherm of Nitrogen on RF-ACX
DOI: 10.1007/s10450-017-9908-z
Article source: Figure 4
Adsorbate Nitrogen: InChIKey IJGRMHOSHXDMSA-UHFFFAOYSA-N
Kind: experiment
Isotherm type: excess
Temperature: 313 K
Tabular data in the source: 0
pressure (bar)	uptake (mmol/kg)
0.031153	0.018
1.88473	0.3672
2.88162	0.5544
3.89408	0.7056
4.89097	0.846
5.88785	0.972
6.90031	1.098
7.8972	1.2168
8.89408	1.332
9.89097	1.4436
