Adsorption isotherm of Carbon Dioxide on RF-ACX
DOI: 10.1007/s10450-017-9908-z
Article source: Figure 4a
Adsorbate Carbon Dioxide: InChIKey CURLTUGMZLYLDI-UHFFFAOYSA-N
Kind: experiment
Isotherm type: absolute
Temperature: 323 K
Tabular data in the source: 0
pressure (bar)	uptake (mmol/g)
0.0296	0.014
1.0022	1.4648
1.3914	1.8311
1.909	2.1095
1.9302	2.1553
2.8641	2.5818
2.9068	2.5572
3.8996	2.836
3.9049	2.8465
4.8605	3.0725
5.8695	3.214
6.9053	3.3239
7.8736	3.422
8.9035	3.4954
9.8825	3.5659
