Adsorption isotherm of Methane on RF-ACX
DOI: 10.1007/s10450-017-9908-z
Article source: Figure 4b
Adsorbate Methane: InChIKey VNWKTOKETHGBQD-UHFFFAOYSA-N
Kind: experiment
Isotherm type: absolute
Temperature: 323 K
Tabular data in the source: 0
pressure (bar)	uptake (mmol/g)
0.0398	0.0098
0.9741	0.4176
1.0675	0.4434
1.9084	0.7613
2.9032	1.0284
3.9084	1.2046
4.9106	1.3107
5.8908	1.4291
5.8961	1.4106
6.8933	1.4729
6.8986	1.479
7.9064	1.5351
7.9064	1.529
8.8771	1.5831
8.8931	1.5501
9.8957	1.5897
