Adsorption isotherm of Carbon Dioxide on RF-ACX
DOI: 10.1007/s10450-017-9908-z
Article source: Figure 4
Adsorbate Carbon Dioxide: InChIKey CURLTUGMZLYLDI-UHFFFAOYSA-N
Kind: experiment
Isotherm type: excess
Temperature: 303 K
Tabular data in the source: 0
pressure (bar)	uptake (mmol/kg)
0.046875	0.010267
1	2.13552
1.90625	2.84394
2.89062	3.28542
3.89062	3.56263
4.89062	3.7577
5.89062	3.8809
6.89062	4.01437
7.875	4.06571
8.875	4.15811
0.046875	0.020534
1.04688	2.28953
1.89062	2.92608
2.92188	3.34702
3.89062	3.59343
4.89062	3.7885
5.875	3.92197
6.89062	4.02464
7.875	4.10678
9.85938	4.19918
