Adsorption isotherm of Nitrogen on RF-ACX
DOI: 10.1007/s10450-017-9908-z
Article source: Figure 4c
Adsorbate Nitrogen: InChIKey IJGRMHOSHXDMSA-UHFFFAOYSA-N
Kind: experiment
Isotherm type: absolute
Temperature: 313 K
Tabular data in the source: 0
pressure (bar)	uptake (mmol/g)
0.0397	0.0031
1.8851	0.36281
2.9031	0.53961
3.8892	0.69787
4.8884	0.83886
5.8743	0.96441
6.892	1.09183
7.8885	1.21429
8.9008	1.32812
9.892	1.45059
