Adsorption isotherm of Nitrogen on RF-ACX
DOI: 10.1007/s10450-017-9908-z
Article source: Figure 4
Adsorbate Nitrogen: InChIKey IJGRMHOSHXDMSA-UHFFFAOYSA-N
Kind: experiment
Isotherm type: excess
Temperature: 303 K
Tabular data in the source: 0
pressure (bar)	uptake (mmol/kg)
0.031153	0.0144
1.86916	0.3996
2.88162	0.6048
3.89408	0.7776
4.89097	0.9216
5.90343	1.0584
6.88474	1.1844
7.8972	1.3068
8.89408	1.4184
9.90654	1.5336
