Adsorption isotherm of Methane on RF-ACX
DOI: 10.1007/s10450-017-9908-z
Article source: Figure 4b
Adsorbate Methane: InChIKey VNWKTOKETHGBQD-UHFFFAOYSA-N
Kind: experiment
Isotherm type: absolute
Temperature: 333 K
Tabular data in the source: 0
pressure (bar)	uptake (mmol/g)
0.0398	0.0098
1.0056	0.0945
1.0555	0.1385
1.8933	0.385
2.8782	0.6261
3.8969	0.7842
4.8956	0.9116
4.8957	0.9034
5.8821	0.9883
5.8928	0.9801
6.8845	1.0671
6.8952	1.0486
7.903	1.1005
7.9083	1.1088
8.8843	1.1484
8.9003	1.1381
9.871	1.1716
