Adsorption isotherm of Methane on RF-ACX
DOI: 10.1007/s10450-017-9908-z
Article source: Figure 4
Adsorbate Methane: InChIKey VNWKTOKETHGBQD-UHFFFAOYSA-N
Kind: experiment
Isotherm type: excess
Temperature: 333 K
Tabular data in the source: 0
pressure (bar)	uptake (mmol/kg)
0.991736	0.083512
1.91735	0.398287
2.89256	0.616702
3.8843	0.764454
4.89256	0.880086
5.8843	0.976445
6.87603	1.04711
7.8843	1.0985
8.87603	1.13705
1.04132	0.141328
1.8843	0.391863
2.89256	0.635974
3.8843	0.79015
4.90909	0.91863
5.8843	1.00214
6.89256	1.07281
7.8843	1.1242
8.89256	1.16274
9.86777	1.17559
