Adsorption isotherm of Methane on RF-ACX
DOI: 10.1007/s10450-017-9908-z
Article source: Figure 4b
Adsorbate Methane: InChIKey VNWKTOKETHGBQD-UHFFFAOYSA-N
Kind: experiment
Isotherm type: absolute
Temperature: 303 K
Tabular data in the source: 0
pressure (bar)	uptake (mmol/g)
0.0398	0.0098
1.0039	1.0285
1.0413	1.1363
1.8736	1.4702
1.8777	1.498
2.8914	1.7645
2.8915	1.7433
3.8508	1.92
3.8844	1.9444
4.8481	2.0639
4.8608	2.0606
5.8709	2.1719
6.8885	2.2276
6.8951	2.2341
7.8876	2.2805
7.8876	2.2766
8.9268	2.3178
9.8926	2.341
