Adsorption isotherm of Nitrogen on RF-ACX
DOI: 10.1007/s10450-017-9908-z
Article source: Figure 4
Adsorbate Nitrogen: InChIKey IJGRMHOSHXDMSA-UHFFFAOYSA-N
Kind: experiment
Isotherm type: excess
Temperature: 333 K
Tabular data in the source: 0
pressure (bar)	uptake (mmol/kg)
0.031153	0.0144
1.02804	0.1764
1.88473	0.3096
2.88162	0.45
3.8785	0.5796
4.89097	0.6984
5.919	0.8172
6.88474	0.9324
7.88162	1.044
8.89408	1.1628
9.90654	1.2816
