Adsorption isotherm of Carbon Dioxide on RF-ACX
DOI: 10.1007/s10450-017-9908-z
Article source: Figure 4a
Adsorbate Carbon Dioxide: InChIKey CURLTUGMZLYLDI-UHFFFAOYSA-N
Kind: experiment
Isotherm type: absolute
Temperature: 313 K
Tabular data in the source: 0
pressure (bar)	uptake (mmol/g)
0.0296	0.014
0.955	1.727
1.0481	1.822
1.8609	2.4204
1.8779	2.3813
2.8944	2.8178
2.9197	2.8681
3.8772	3.1369
3.8772	3.0978
4.8941	3.3332
4.8942	3.2997
5.9026	3.4792
5.9026	3.468
6.8858	3.5916
7.869	3.6706
8.8692	3.7328
9.9118	3.7615
