Adsorption isotherm of Nitrogen on RF-ACX
DOI: 10.1007/s10450-017-9908-z
Article source: Figure 4c
Adsorbate Nitrogen: InChIKey IJGRMHOSHXDMSA-UHFFFAOYSA-N
Kind: experiment
Isotherm type: absolute
Temperature: 293 K
Tabular data in the source: 0
pressure (bar)	uptake (mmol/g)
0.0397	0.0031
2.8983	0.63467
3.8766	0.81701
4.8681	0.98021
5.8805	1.11874
6.9036	1.25356
7.8788	1.36861
8.9017	1.48368
9.8709	1.5967
