Adsorption isotherm of Carbon Dioxide on RF-ACX
DOI: 10.1007/s10450-017-9908-z
Article source: Figure 4a
Adsorbate Carbon Dioxide: InChIKey CURLTUGMZLYLDI-UHFFFAOYSA-N
Kind: experiment
Isotherm type: absolute
Temperature: 293 K
Tabular data in the source: 0
pressure (bar)	uptake (mmol/g)
0.0296	0.014
0.9833	2.5314
1.0338	2.7103
1.8891	3.2472
1.8932	3.3254
2.8802	3.6837
2.8886	3.7423
3.8758	3.9609
3.8927	3.9805
4.8588	4.1572
4.8757	4.174
5.88	4.3004
5.88	4.2948
6.8632	4.4045
7.8549	4.4806
8.8381	4.5372
9.8722	4.5883
