Adsorption isotherm of Carbon Dioxide on RF-ACX
DOI: 10.1007/s10450-017-9908-z
Article source: Figure 4a
Adsorbate Carbon Dioxide: InChIKey CURLTUGMZLYLDI-UHFFFAOYSA-N
Kind: experiment
Isotherm type: absolute
Temperature: 333 K
Tabular data in the source: 0
pressure (bar)	uptake (mmol/g)
0.0296	0.014
0.9814	1.1657
1.0026	1.2502
1.8881	1.8174
1.8989	1.7259
2.8326	2.2369
2.8647	2.1806
3.9002	2.477
3.9003	2.4524
4.9039	2.6748
4.9092	2.6854
5.8755	2.8128
5.8862	2.8023
6.89	2.9508
7.8956	3.0358
8.898	3.1075
9.8668	3.1658
