Adsorption isotherm of Methane on RF-ACX
DOI: 10.1007/s10450-017-9908-z
Article source: Figure 4b
Adsorbate Methane: InChIKey VNWKTOKETHGBQD-UHFFFAOYSA-N
Kind: experiment
Isotherm type: absolute
Temperature: 313 K
Tabular data in the source: 0
pressure (bar)	uptake (mmol/g)
0.0398	0.0098
1.0382	0.8968
1.0443	0.9451
1.904	1.2756
1.904	1.2682
2.8756	1.5258
2.8798	1.5218
3.8981	1.7033
4.8916	1.8251
5.8992	1.9152
5.9045	1.9204
6.8937	1.9878
7.9087	2.0366
7.9087	2.0288
8.9079	2.0687
8.9145	2.0752
9.9038	2.0983
