Adsorption isotherm of Carbon Dioxide on RF-ACX
DOI: 10.1007/s10450-017-9908-z
Article source: Figure 4
Adsorbate Carbon Dioxide: InChIKey CURLTUGMZLYLDI-UHFFFAOYSA-N
Kind: experiment
Isotherm type: excess
Temperature: 293 K
Tabular data in the source: 0
pressure (bar)	uptake (mmol/kg)
0.03125	0.010267
0.984375	2.52567
1.89062	3.24435
2.89062	3.68583
3.89062	3.95277
4.89062	4.11704
5.89062	4.27105
6.875	4.37372
7.89062	4.44558
8.85938	4.50719
9.85938	4.55852
0.03125	0.010267
1.04688	2.70021
1.90625	3.32649
2.89062	3.74743
3.89062	3.99384
4.89062	4.16838
5.875	4.29158
6.875	4.39425
7.875	4.46612
8.875	4.52772
9.85938	4.55852
