Adsorption isotherm of Carbon Dioxide on RF-ACX
DOI: 10.1007/s10450-017-9908-z
Article source: Figure 4
Adsorbate Carbon Dioxide: InChIKey CURLTUGMZLYLDI-UHFFFAOYSA-N
Kind: experiment
Isotherm type: excess
Temperature: 323 K
Tabular data in the source: 0
pressure (bar)	uptake (mmol/kg)
0.015625	0.010267
1	1.4271
1.90625	2.08419
2.90625	2.5154
3.89062	2.82341
4.89062	3.02875
5.89062	3.18275
6.89062	3.29569
7.85938	3.39836
8.85938	3.47023
0.015625	0.010267
1.40625	1.82752
1.90625	2.17659
2.89062	2.56674
3.89062	2.85421
4.89062	3.04928
5.875	3.20328
6.875	3.31622
7.89062	3.40862
8.875	3.48049
9.85938	3.54209
