Adsorption isotherm of Methane on RF-ACX
DOI: 10.1007/s10450-017-9908-z
Article source: Figure 4
Adsorbate Methane: InChIKey VNWKTOKETHGBQD-UHFFFAOYSA-N
Kind: experiment
Isotherm type: excess
Temperature: 313 K
Tabular data in the source: 0
pressure (bar)	uptake (mmol/kg)
0.049587	0.019272
1.04132	0.892934
1.8843	1.25268
2.90909	1.52248
3.90083	1.68951
4.89256	1.81799
5.8843	1.92077
6.89256	1.99144
7.8843	2.0364
8.87603	2.08137
9.86777	2.11991
0.049587	0.019272
1.04132	0.937901
1.8843	1.27837
2.89256	1.52248
3.8843	1.70236
4.89256	1.82441
5.8843	1.92719
6.87603	1.99144
7.8843	2.04925
8.87603	2.08137
9.86777	2.10064
