Adsorption isotherm of Carbon Dioxide on RF-ACX
DOI: 10.1007/s10450-017-9908-z
Article source: Figure 4a
Adsorbate Carbon Dioxide: InChIKey CURLTUGMZLYLDI-UHFFFAOYSA-N
Kind: experiment
Isotherm type: absolute
Temperature: 303 K
Tabular data in the source: 0
pressure (bar)	uptake (mmol/g)
0.0296	0.014
0.9543	2.146
1.0049	2.2689
1.8771	2.845
1.9023	2.9455
2.8596	3.3149
2.8765	3.3541
3.9019	3.5839
4.9018	3.7913
5.8595	3.9205
6.885	4.0386
7.8513	4.1007
7.8683	4.0952
8.8769	4.1797
9.8517	4.2084
