Adsorption isotherm of Methane on RF-ACX
DOI: 10.1007/s10450-017-9908-z
Article source: Figure 4
Adsorbate Methane: InChIKey VNWKTOKETHGBQD-UHFFFAOYSA-N
Kind: experiment
Isotherm type: excess
Temperature: 303 K
Tabular data in the source: 0
pressure (bar)	uptake (mmol/kg)
0.016529	0.006424
0.975207	1.04069
1.8843	1.46467
2.87603	1.7409
3.8843	1.93362
4.87603	2.0621
5.8843	2.16488
6.8595	2.23555
7.8843	2.28051
8.89256	2.31906
9.86777	2.33833
0.033058	0.019272
1.04132	1.11777
1.8843	1.50321
2.89256	1.76017
3.90083	1.95931
4.87603	2.08137
5.8843	2.18415
6.87603	2.24197
7.8843	2.29336
8.87603	2.32548
9.86777	2.35118
