Adsorption isotherm of Carbon Dioxide on RF-ACX
DOI: 10.1007/s10450-017-9908-z
Article source: Figure 4
Adsorbate Carbon Dioxide: InChIKey CURLTUGMZLYLDI-UHFFFAOYSA-N
Kind: experiment
Isotherm type: excess
Temperature: 333 K
Tabular data in the source: 0
pressure (bar)	uptake (mmol/kg)
0.03125	0.010267
1	1.17043
1.90625	1.75565
2.89062	2.14579
3.89062	2.423
4.89062	2.6386
5.89062	2.78234
6.875	2.90554
0	0.010267
1.01562	1.26283
1.90625	1.83778
2.90625	2.21766
3.89062	2.47433
4.90625	2.67967
5.89062	2.82341
6.89062	2.93635
7.875	3.01848
8.875	3.10062
9.85938	3.15195
