Adsorption isotherm of Nitrogen on RF-ACX
DOI: 10.1007/s10450-017-9908-z
Article source: Figure 1a
Adsorbate Nitrogen: InChIKey IJGRMHOSHXDMSA-UHFFFAOYSA-N
Kind: experiment
Temperature: 77 K
Tabular data in the source: 0
pressure (bar)	uptake (mmol/g)
0.000152	3.1878
0.004661	5.8336
0.015989	6.1992
0.028289	6.1921
0.032423	6.2288
0.03597	6.3232
0.051168	6.3843
0.063752	6.3352
0.071402	6.4261
0.084676	6.4539
0.087138	6.3717
0.096064	6.4783
0.102346	6.445
0.110604	6.5096
0.127292	6.4517
0.129876	6.5339
0.141508	6.469
0.146625	6.5547
0.164265	6.509
0.180385	6.5316
0.201856	6.5349
0.209161	6.5926
0.254321	6.6166
0.254898	6.5553
0.306107	6.6405
0.307333	6.5862
0.355644	6.6084
0.355988	6.6487
0.40746	6.6656
0.408676	6.6079
0.455406	6.6266
0.459875	6.686
0.508267	6.6334
0.508712	6.6929
0.558786	6.635
0.560032	6.7144
0.590652	6.7074
0.609296	6.6411
0.641172	6.7179
0.659025	6.6538
0.697254	6.7195
0.729424	6.653
0.732646	6.7147
0.761675	6.7055
0.77278	6.6569
0.778343	6.6569
0.7919	6.7008
0.810199	6.705
0.811364	6.6631
0.83248	6.7114
0.848752	6.6759
0.870648	6.7044
0.872209	6.6624
0.888512	6.6579
0.903274	6.7128
0.924339	6.7016
0.925109	6.6663
0.943044	6.708
0.948191	6.6793
0.965294	6.6813
0.969692	6.7121
0.983583	6.6767
0.989561	6.6964
0.994333	6.6832
1.0039	6.7139
1.00427	6.6853
