Adsorption isotherm of Methane on RF-ACX
DOI: 10.1007/s10450-017-9908-z
Article source: Figure 4
Adsorbate Methane: InChIKey VNWKTOKETHGBQD-UHFFFAOYSA-N
Kind: experiment
Isotherm type: excess
Temperature: 293 K
Tabular data in the source: 0
pressure (bar)	uptake (mmol/kg)
0.033058	0.012848
0.975207	1.2848
1.8843	1.76017
2.87603	2.05568
3.8843	2.24839
4.89256	2.3833
5.8843	2.47323
6.87603	2.53747
7.86777	2.58887
8.87603	2.62099
0.033058	0.006424
1.04132	1.394
1.8843	1.78587
2.89256	2.07495
3.8843	2.26767
4.89256	2.38972
5.8843	2.49251
6.89256	2.55032
7.86777	2.59529
8.8595	2.62099
9.8843	2.65311
