Adsorption isotherm of Methane on RF-ACX
DOI: 10.1007/s10450-017-9908-z
Article source: Figure 4
Adsorbate Methane: InChIKey VNWKTOKETHGBQD-UHFFFAOYSA-N
Kind: experiment
Isotherm type: excess
Temperature: 323 K
Tabular data in the source: 0
pressure (bar)	uptake (mmol/kg)
0.033058	0.006424
0.958678	0.436831
1.90083	0.777302
2.90909	1.02784
3.90083	1.19486
4.89256	1.31692
5.90083	1.41328
6.87603	1.47752
7.8843	1.52891
8.87603	1.56745
9.86777	1.606
0.033058	0.019272
1.04132	0.462527
1.8843	0.75803
2.89256	1.03426
3.8843	1.20771
4.87603	1.32334
5.8843	1.43255
6.89256	1.49036
7.8843	1.5546
8.87603	1.59957
9.8843	1.606
