Adsorption isotherm of Nitrogen on RF-ACX
DOI: 10.1007/s10450-017-9908-z
Article source: Figure 4
Adsorbate Nitrogen: InChIKey IJGRMHOSHXDMSA-UHFFFAOYSA-N
Kind: experiment
Isotherm type: excess
Temperature: 323 K
Tabular data in the source: 0
pressure (bar)	uptake (mmol/kg)
0.046729	0.0144
1.88473	0.3384
2.88162	0.4968
3.89408	0.6408
4.89097	0.774
5.88785	0.8892
6.90031	1.0116
7.8972	1.1268
8.90966	1.242
9.89097	1.368
