Adsorption isotherm of Carbon Dioxide on RF-ACX
DOI: 10.1007/s10450-017-9908-z
Article source: Figure 4
Adsorbate Carbon Dioxide: InChIKey CURLTUGMZLYLDI-UHFFFAOYSA-N
Kind: experiment
Isotherm type: excess
Temperature: 313 K
Tabular data in the source: 0
pressure (bar)	uptake (mmol/kg)
0.03125	0.020534
0.984375	1.72485
1.89062	2.3614
2.89062	2.81314
3.89062	3.08008
4.89062	3.29569
5.89062	3.42916
6.89062	3.54209
7.875	3.65503
8.875	3.70637
0.015625	0.010267
1.04688	1.82752
1.89062	2.43326
2.89062	2.84394
3.90625	3.11088
4.89062	3.30595
5.89062	3.45996
6.89062	3.56263
7.875	3.65503
8.875	3.7269
9.85938	3.77823
