Adsorption isotherm of Nitrogen on RF-ACX
DOI: 10.1007/s10450-017-9908-z
Article source: Figure 4c
Adsorbate Nitrogen: InChIKey IJGRMHOSHXDMSA-UHFFFAOYSA-N
Kind: experiment
Isotherm type: absolute
Temperature: 303 K
Tabular data in the source: 0
pressure (bar)	uptake (mmol/g)
0.0397	0.0031
1.8747	0.39738
2.8584	0.60564
3.9002	0.77072
4.8836	0.91849
5.8855	1.05701
6.8714	1.18812
7.8784	1.30441
8.8695	1.4133
9.9084	1.53578
