Adsorption isotherm of Nitrogen on RF-ACX
DOI: 10.1007/s10450-017-9908-z
Article source: Figure 4c
Adsorbate Nitrogen: InChIKey IJGRMHOSHXDMSA-UHFFFAOYSA-N
Kind: experiment
Isotherm type: absolute
Temperature: 333 K
Tabular data in the source: 0
pressure (bar)	uptake (mmol/g)
0.0397	0.0031
1.047	0.16039
1.8753	0.29826
2.9039	0.44317
3.8789	0.57096
4.8982	0.69504
5.884	0.8138
6.891	0.92516
7.8663	1.04515
8.9051	1.16022
9.8751	1.28515
