Adsorption isotherm of Nitrogen on RF-ACX
DOI: 10.1007/s10450-017-9908-z
Article source: Figure 4
Adsorbate Nitrogen: InChIKey IJGRMHOSHXDMSA-UHFFFAOYSA-N
Kind: experiment
Isotherm type: excess
Temperature: 293 K
Tabular data in the source: 0
pressure (bar)	uptake (mmol/kg)
0.031153	0.0144
2.86604	0.6444
3.8785	0.828
4.87539	0.9864
5.88785	1.1232
6.88474	1.2528
7.8972	1.3716
8.89408	1.4868
9.89097	1.5984
