Adsorption isotherm of Lead(II) Ion, Water on Pb(II)-IIP
DOI: 10.1515/9783110516623-111
Article source: Figure 7
Adsorbate Lead(II) Ion: InChIKey RVPVRDXYQKGNMQ-UHFFFAOYSA-N
Adsorbate Water: InChIKey XLYOFNOQVPJJNP-UHFFFAOYSA-N
Kind: experiment
Temperature: 298 K
Tabular data in the source: 0
pressure (bar)	Lead(II) Ion fraction	Lead(II) Ion uptake (mg/g)	Water fraction	Water uptake (mg/g)	total uptake (mg/g)
1.01325	17.04	11.128			
1.01325	98.04	41.36			
1.01325	199.57	65.912			
1.01325	298	95.801			
1.01325	399.55	128.22			
1.01325	598.82	154.547			
1.01325	800.83	157.89			
1.01325	998.48	156.445			
