Adsorption isotherm of Nitrogen on BF-COF-1
DOI: 10.1002/anie.201310500
Article source: Figure 3a
Adsorbate Nitrogen: InChIKey IJGRMHOSHXDMSA-UHFFFAOYSA-N
Kind: experiment
Temperature: 77 K
Tabular data in the source: 0
pressure (bar)	uptake (cm3(STP)/g)
0.000887	0.411946
0.000887	57.2606
0.000887	72.0906
0.000887	86.0968
0.001775	94.3357
0.001775	19.7734
0.001775	39.1349
0.002662	101.339
0.005324	109.166
0.032829	132.235
0.079853	156.952
0.11978	173.841
0.159707	187.024
0.181888	194.027
0.251982	206.797
0.354016	217.92
0.403703	224.511
0.455164	230.278
0.50485	233.986
0.556312	238.517
0.657459	248.404
0.70892	254.995
0.757719	257.467
0.810955	264.882
0.861529	267.353
0.912102	276.004
0.991956	326.262
1.00349	344.387
1.00704	358.805
0.00976	118.641
0.03549	135.942
0.066544	150.772
0.10026	166.838
0.141961	180.844
0.206731	201.442
0.303443	216.272
0.40459	228.218
0.503963	238.105
0.607773	244.696
0.717793	254.583
0.804744	265.294
0.92275	276.416
0.960014	294.13
0.985745	315.963
0.999941	343.563
