Adsorption isotherm of Nitrogen on BF-COF-2
DOI: 10.1002/anie.201310500
Article source: Figure 3b
Adsorbate Nitrogen: InChIKey IJGRMHOSHXDMSA-UHFFFAOYSA-N
Kind: experiment
Temperature: 77 K
Tabular data in the source: 0
pressure (bar)	uptake (cm3(STP)/g)
0	46.5021
0.000887	0
0.000887	11.9342
0.000887	36.6255
0.001775	25.5144
0.002662	55.144
0.005324	62.5514
0.007985	70.7819
0.015083	80.6584
0.032829	97.5309
0.061221	120.165
0.080741	131.687
0.103809	141.152
0.122442	149.794
0.143736	158.025
0.163256	164.198
0.183663	172.016
0.206731	177.366
0.254643	188.477
0.305217	195.062
0.355791	201.646
0.406365	206.996
0.456938	212.346
0.507512	216.461
0.558086	220.576
0.659234	228.807
0.708033	235.391
0.761268	237.86
0.80918	244.856
0.863303	247.325
0.912102	254.321
0.963563	271.605
0.990181	292.181
0.995505	301.646
1.00526	317.695
1.00881	331.687
0.023069	90.535
0.04525	111.111
0.069206	126.749
0.102922	144.444
0.143736	159.671
0.209393	179.424
0.30433	200
0.407252	211.111
0.505738	220.576
0.610434	226.749
0.719567	234.979
0.805631	244.856
0.923637	257.613
0.961789	274.897
0.986632	294.239
1.00172	317.695
