Adsorption isotherm of Argon on Carbon
DOI: 10.1063/1.1996573
Adsorbate Argon: InChIKey XKRFYHLGVUSROY-UHFFFAOYSA-N
Temperature: 158 K
Tabular data in the source: 0
pressure (bar)	uptake (kmol/m3)
4.18986	0.447887
33.6857	3.88906
48.9798	6.03024
55.5344	8.55377
55.5344	10.3126
57.7193	13.9832
57.7193	15.9714
60.9966	18.0361
70.8285	20.1773
83.9378	21.6302
103.602	22.8538
151.669	24.7655
204.106	26.2185
256.543	26.9832
401.837	28.9714
499.064	30.042
