Adsorption isotherm of Argon on Carbon
DOI: 10.1063/1.1996573
Adsorbate Argon: InChIKey XKRFYHLGVUSROY-UHFFFAOYSA-N
Temperature: 166 K
Tabular data in the source: 0
pressure (bar)	uptake (micromoles/m2)
1.60399	0.158233
5.09978	6.03773
7.72163	9.02008
13.8393	12.1729
28.6964	15.8369
42.6796	19.7566
50.5452	22.8241
60.1586	24.2727
72.3939	19.1601
82.0073	10.7243
102.108	6.20815
151.923	3.31101
201.738	2.20328
251.554	1.77722
299.621	1.26596
395.755	0.754704
