Adsorption isotherm of Argon on Carbon
DOI: 10.1063/1.1996573
Adsorbate Argon: InChIKey XKRFYHLGVUSROY-UHFFFAOYSA-N
Temperature: 253 K
Tabular data in the source: 0
pressure (bar)	uptake (kmol/m3)
9.65204	0.294945
44.61	2.05377
101.417	5.26553
152.761	8.09494
198.644	10.9244
248.896	13.2949
295.871	15.4361
397.467	18.2655
495.786	20.6361
