Adsorption isotherm of Argon on Carbon
DOI: 10.1063/1.1996573
Adsorbate Argon: InChIKey XKRFYHLGVUSROY-UHFFFAOYSA-N
Temperature: 253 K
Tabular data in the source: 0
pressure (bar)	uptake (micromoles/m2)
5.09978	0.328653
13.8393	2.88496
27.8225	4.93
42.6796	6.03773
60.1586	7.06025
96.8645	8.42361
151.049	8.3384
199.991	7.57151
249.806	6.20815
299.621	5.18563
398.377	3.48143
