Adsorption isotherm of Argon on Carbon
DOI: 10.1063/1.1996573
Adsorbate Argon: InChIKey XKRFYHLGVUSROY-UHFFFAOYSA-N
Temperature: 158 K
Tabular data in the source: 0
pressure (bar)	uptake (micromoles/m2)
1.60399	0.158233
3.35188	7.99756
7.72163	10.0426
12.9653	11.832
21.7048	15.7517
25.2006	17.5411
29.5704	19.927
41.8057	25.21
50.5452	31.686
51.4191	33.8162
54.9149	33.0493
55.7889	20.2678
56.6628	30.6634
58.4107	10.8947
58.4107	13.451
62.7805	9.78697
70.646	6.20815
84.6292	4.58916
99.4863	3.90748
151.923	2.28849
200.864	1.6068
249.806	1.01033
296.999	0.925124
396.629	0.754704
