Adsorption isotherm of Argon on Carbon
DOI: 10.1063/1.1996573
Adsorbate Argon: InChIKey XKRFYHLGVUSROY-UHFFFAOYSA-N
Temperature: 150 K
Tabular data in the source: 0
pressure (bar)	uptake (micromoles/m2)
2.00498	0.312107
4.18986	10.3625
10.7445	12.9844
23.8537	19.3205
24.9462	22.2701
31.5008	25.6566
38.0554	31.3373
41.3327	42.5894
