Adsorption isotherm of Argon on Carbon
DOI: 10.1063/1.1996573
Adsorbate Argon: InChIKey XKRFYHLGVUSROY-UHFFFAOYSA-N
Temperature: 166 K
Tabular data in the source: 0
pressure (bar)	uptake (kmol/m3)
4.18986	0.447887
31.5008	2.58906
42.4252	4.042
51.1646	5.49495
58.8117	7.78906
71.921	12.6832
82.8453	16.7361
88.3075	18.4185
101.417	19.7949
148.392	23.0067
203.013	24.6891
251.081	25.8361
299.148	26.6008
401.837	28.1302
497.971	29.1244
