Adsorption isotherm of Argon on Carbon
DOI: 10.1063/1.1996573
Adsorbate Argon: InChIKey XKRFYHLGVUSROY-UHFFFAOYSA-N
Temperature: 253 K
Tabular data in the source: 0
pressure (bar)	uptake (micromoles/m2)
6.37473	0.312107
14.0218	2.27849
23.8537	4.24488
44.61	5.77429
74.1058	7.41295
102.509	8.39614
148.392	8.61463
200.829	7.52219
249.988	5.99278
299.148	4.90034
398.56	3.26169
499.064	2.06001
