Adsorption isotherm of Argon on Carbon
DOI: 10.1063/1.1996573
Adsorbate Argon: InChIKey XKRFYHLGVUSROY-UHFFFAOYSA-N
Temperature: 253 K
Tabular data in the source: 0
pressure (bar)	uptake (micromoles/m2)
6.19484	0.0624214
14.9343	2.29099
19.3041	3.25234
21.489	4.21368
34.5982	5.13133
47.7074	6.18007
56.4469	6.81368
65.1864	7.33805
80.4806	7.79688
93.5898	8.05906
102.329	8.51788
148.212	8.47419
198.464	7.75318
255.27	6.04898
301.153	5.19688
390.733	3.77671
506.531	2.57503
607.035	1.81032
714.094	1.32965
810.228	1.11116
908.548	0.827127
1000.31	0.499396
