Adsorption isotherm of Argon on Carbon
DOI: 10.1063/1.1996573
Adsorbate Argon: InChIKey XKRFYHLGVUSROY-UHFFFAOYSA-N
Temperature: 253 K
Tabular data in the source: 0
pressure (bar)	uptake (kmol/m3)
0.00115039	0.0383937
0.00470555	0.0383937
0.0389276	0.431671
0.170848	2.13587
0.651308	5.80646
1.51651	11.1813
3.78872	16.6871
12.5456	20.751
31.3429	22.193
72.9791	22.4552
119.486	20.6199
182.325	17.3426
424.526	10.9191
921.244	4.10226
3511.97	-4.15656
9414.27	-9.79354
19040.1	-18.4456
