Adsorption isotherm of Argon on Carbon
DOI: 10.1063/1.1996573
Adsorbate Argon: InChIKey XKRFYHLGVUSROY-UHFFFAOYSA-N
Temperature: 253 K
Tabular data in the source: 0
pressure (bar)	uptake (kmol/m3)
0.00115039	0.0383937
0.00470555	0.0383937
0.0389276	0.431671
0.170848	2.13587
0.651308	5.80646
1.51651	11.1813
4.06519	18.2602
9.46541	20.4888
36.0841	23.7661
63.3902	24.5527
111.36	26.2569
562.674	28.3544
1310.13	29.9275
3768.25	32.2871
7621.17	34.5157
20429.5	35.4334
