Adsorption isotherm of Argon on Carbon
DOI: 10.1063/1.1996573
Adsorbate Argon: InChIKey XKRFYHLGVUSROY-UHFFFAOYSA-N
Temperature: 166 K
Tabular data in the source: 0
pressure (bar)	uptake (micromoles/m2)
2.00498	0.202863
4.18986	4.24488
5.28229	7.84992
9.65204	10.4718
22.7613	13.7491
33.6857	16.9171
40.2403	19.6482
51.1646	22.7071
60.9966	24.2365
73.0134	19.6482
80.6604	10.7995
101.417	6.10202
152.761	3.0432
201.921	1.73227
252.173	1.51379
298.055	0.858325
398.56	0.421351
497.971	0.0936194
