Adsorption isotherm of Argon on Carbon
DOI: 10.1063/1.1996573
Adsorbate Argon: InChIKey XKRFYHLGVUSROY-UHFFFAOYSA-N
Temperature: 158 K
Tabular data in the source: 0
pressure (bar)	uptake (micromoles/m2)
2.00498	0.312107
3.09742	9.70706
18.3915	15.2785
31.5008	18.9928
31.5008	20.1945
43.5176	25.5474
50.0722	30.4634
53.3495	34.3961
56.6268	30.6819
58.8117	19.7575
60.9966	10.7995
60.9966	12.9844
63.1815	8.72387
69.7361	5.5558
79.568	4.57261
98.1394	3.48017
152.761	1.95076
200.829	1.07681
310.072	0.639838
401.837	0.312107
