Adsorption isotherm of Argon on Carbon
DOI: 10.1063/1.1996573
Adsorbate Argon: InChIKey XKRFYHLGVUSROY-UHFFFAOYSA-N
Temperature: 253 K
Tabular data in the source: 0
pressure (bar)	uptake (kmol/m3)
6.19484	0.25281
60.8167	3.20239
100.144	5.43096
148.212	8.24945
196.279	11.199
253.086	13.5587
301.153	15.6562
403.842	18.8024
497.791	20.7688
600.481	22.6696
698.8	24.0461
794.934	25.0293
897.623	25.8814
995.943	26.8646
