Adsorption isotherm of Argon on Carbon
DOI: 10.1063/1.1996573
Adsorbate Argon: InChIKey XKRFYHLGVUSROY-UHFFFAOYSA-N
Temperature: 87 K
Tabular data in the source: 0
pressure (bar)	uptake (kmol/m3)
9.21e-11	0.0926987
2.47e-10	0.223791
6.62e-10	0.223791
2.52e-09	0.169486
7.79e-09	1.34932
1.58e-08	2.66024
1.95e-08	4.62663
3.19e-08	9.21486
3.94e-08	13.0165
6e-08	17.6048
8.54e-08	20.2266
1.21e-07	21.7997
2.83e-07	25.3392
1.16e-06	27.3056
4.73e-06	28.6165
1.03e-05	29.9275
2.39e-05	29.7964
7.92e-05	29.7964
0.00013	31.1073
0.000809	31.2384
0.00623682	31.7628
0.0102113	31.2384
0.0221591	31.3695
0.0787299	31.5006
0.993839	31.5006
