Adsorption isotherm of Methane on Mg3(HCOO)6
DOI: 10.1016/j.micromeso.2016.01.030
Article source: Figure 6
Adsorbate Methane: InChIKey VNWKTOKETHGBQD-UHFFFAOYSA-N
Kind: experiment
Temperature: 298 K
Tabular data in the source: 0
pressure (bar)	uptake (mmol/g)
0.00953	0.0146
0.0191	0.0231
0.0296	0.0317
0.04	0.0402
0.0515	0.0512
0.105	0.0938
0.154	0.138
0.209	0.185
0.259	0.225
0.31	0.268
0.363	0.307
0.415	0.347
0.47	0.39
0.519	0.427
0.57	0.464
0.622	0.502
0.674	0.537
0.727	0.571
0.781	0.6
0.834	0.639
0.884	0.672
0.935	0.703
0.959	0.72
0.968	0.728
0.989	0.737
1	0.743
1.02	0.755
1.04	0.763
