Adsorption isotherm of Nitrogen on Co3(HCOO)6
DOI: 10.1016/j.micromeso.2016.01.030
Article source: Figure 6
Adsorbate Nitrogen: InChIKey IJGRMHOSHXDMSA-UHFFFAOYSA-N
Kind: experiment
Temperature: 298 K
Tabular data in the source: 0
pressure (bar)	uptake (mmol/g)
0.0275	0.00969
0.0493	0.0121
0.0588	0.0133
0.108	0.0205
0.159	0.029
0.21	0.0386
0.263	0.0495
0.315	0.0579
0.368	0.0676
0.419	0.0773
0.471	0.0845
0.522	0.0966
0.575	0.106
0.627	0.113
0.679	0.122
0.73	0.132
0.782	0.141
0.835	0.148
0.887	0.158
0.939	0.168
0.957	0.17
0.969	0.173
0.988	0.175
1	0.177
1.02	0.181
1.04	0.185
