Adsorption isotherm of Nitrogen on Mn3(HCOO)6
DOI: 10.1016/j.micromeso.2016.01.030
Article source: Figure 6
Adsorbate Nitrogen: InChIKey IJGRMHOSHXDMSA-UHFFFAOYSA-N
Kind: experiment
Temperature: 298 K
Tabular data in the source: 0
pressure (bar)	uptake (mmol/g)
0.0181	0.00611
0.0525	0.00978
0.105	0.0147
0.157	0.022
0.21	0.0306
0.26	0.0355
0.314	0.044
0.365	0.0513
0.418	0.0587
0.469	0.066
0.522	0.0721
0.573	0.0819
0.626	0.0868
0.677	0.0929
0.73	0.103
0.781	0.11
0.835	0.116
0.886	0.126
0.937	0.132
0.961	0.134
0.971	0.137
0.992	0.138
1	0.141
1.02	0.143
1.04	0.145
