Adsorption isotherm of Methane on Mn3(HCOO)6
DOI: 10.1016/j.micromeso.2016.01.030
Article source: Figure 6
Adsorbate Methane: InChIKey VNWKTOKETHGBQD-UHFFFAOYSA-N
Kind: experiment
Temperature: 298 K
Tabular data in the source: 0
pressure (bar)	uptake (mmol/g)
0.02	2
0.0305	3.05
0.0401	4.01
0.0525	5.25
0.105	10.5
0.156	15.6
0.21	21
0.261	26.1
0.313	31.3
0.365	36.5
0.417	41.7
0.469	46.9
0.521	52.1
0.573	57.3
0.625	62.5
0.677	67.7
0.729	72.9
0.781	78.1
0.833	83.3
0.885	88.5
0.937	93.7
0.958	95.8
0.969	96.9
0.989	98.9
1	100
1.02	102
1.04	104
