Adsorption isotherm of Nitrogen on Mg3(HCOO)6
DOI: 10.1016/j.micromeso.2016.01.030
Article source: Figure 6
Adsorbate Nitrogen: InChIKey IJGRMHOSHXDMSA-UHFFFAOYSA-N
Kind: experiment
Temperature: 298 K
Tabular data in the source: 0
pressure (bar)	uptake (mmol/g)
0.0181	0.00729
0.0286	0.0085
0.04	0.00971
0.0505	0.00969
0.105	0.0194
0.155	0.0291
0.208	0.0388
0.26	0.0472
0.312	0.0569
0.365	0.0666
0.417	0.0751
0.468	0.0848
0.52	0.0957
0.573	0.104
0.624	0.113
0.678	0.121
0.729	0.132
0.781	0.141
0.833	0.15
0.886	0.157
0.937	0.165
0.96	0.168
0.971	0.172
0.99	0.176
1	0.178
1.02	0.182
1.04	0.185
