Adsorption isotherm of Methane on Ni3(HCOO)6
DOI: 10.1016/j.micromeso.2016.01.030
Article source: Figure 6
Adsorbate Methane: InChIKey VNWKTOKETHGBQD-UHFFFAOYSA-N
Kind: experiment
Temperature: 298 K
Tabular data in the source: 0
pressure (bar)	uptake (mmol/g)
0.0105	0.0134
0.02	0.0231
0.0314	0.0304
0.041	0.0402
0.0543	0.0573
0.104	0.111
0.154	0.164
0.207	0.216
0.259	0.267
0.312	0.313
0.365	0.357
0.415	0.402
0.468	0.446
0.52	0.488
0.571	0.53
0.625	0.569
0.677	0.604
0.728	0.633
0.782	0.667
0.832	0.704
0.886	0.737
0.938	0.768
0.96	0.783
0.969	0.79
0.989	0.796
1	0.807
1.02	0.818
1.04	0.827
