Adsorption isotherm of Nitrogen, Methane on Mg3(HCOO)6
DOI: 10.1016/j.micromeso.2016.01.030
Article source: Table 4
Adsorbate Nitrogen: InChIKey IJGRMHOSHXDMSA-UHFFFAOYSA-N
Adsorbate Methane: InChIKey VNWKTOKETHGBQD-UHFFFAOYSA-N
Kind: experiment
Temperature: 298 K
Tabular data in the source: 0
pressure (bar)	Nitrogen fraction	Nitrogen uptake (mmol/g)	Methane fraction	Methane uptake (mmol/g)	total uptake (mmol/g)
4	0.5	0.15	0.5	0.71	
