Adsorption isotherm of Methane on Co3(HCOO)6
DOI: 10.1016/j.micromeso.2016.01.030
Article source: Figure 6
Adsorbate Methane: InChIKey VNWKTOKETHGBQD-UHFFFAOYSA-N
Kind: experiment
Temperature: 298 K
Tabular data in the source: 0
pressure (bar)	uptake (mmol/g)
0.0114	0.0158
0.0218	0.0279
0.0294	0.0352
0.0398	0.0449
0.0512	0.0558
0.103	0.107
0.155	0.158
0.206	0.206
0.26	0.252
0.31	0.299
0.364	0.343
0.417	0.381
0.468	0.426
0.518	0.466
0.572	0.505
0.625	0.541
0.676	0.569
0.729	0.61
0.78	0.643
0.833	0.677
0.885	0.707
0.937	0.736
0.955	0.746
0.965	0.751
0.987	0.767
0.997	0.773
1.02	0.786
1.03	0.795
