Adsorption isotherm of Nitrogen on Ni3(HCOO)6
DOI: 10.1016/j.micromeso.2016.01.030
Article source: Figure 6
Adsorbate Nitrogen: InChIKey IJGRMHOSHXDMSA-UHFFFAOYSA-N
Kind: experiment
Temperature: 298 K
Tabular data in the source: 0
pressure (bar)	uptake (mmol/g)
0.0562	0.00969
0.105	0.0169
0.155	0.0254
0.208	0.0363
0.259	0.0448
0.312	0.0521
0.363	0.0642
0.415	0.0727
0.468	0.0824
0.52	0.092
0.571	0.101
0.623	0.11
0.675	0.121
0.728	0.13
0.78	0.138
0.831	0.148
0.884	0.155
0.935	0.163
0.959	0.166
0.971	0.168
0.99	0.172
1	0.174
1.02	0.177
1.04	0.182
