Adsorption isotherm of Carbon Dioxide on desolvated [Cu5(L)2(OH)2·(H2O)2·DMA2]·2DMA·EtOH·2H2O
DOI: 10.1039/c5ce00762c
Article source: Figure S14- CO2
Adsorbate Carbon Dioxide: InChIKey CURLTUGMZLYLDI-UHFFFAOYSA-N
Kind: experiment
Temperature: 195 K
Tabular data in the source: 0
pressure (bar)	uptake (cm3(STP)/g)
0.00036	0.574
0.00563	3.8917
0.01649	7.857
0.03183	11.4661
0.06276	15.0959
0.0901	16.8975
0.1192	18.4225
0.15478	19.3057
0.20044	20.3774
0.23249	21.0457
0.30072	22.1175
0.35719	22.7947
0.45284	23.7075
0.51085	24.2052
0.60783	24.8149
0.7118	25.2685
0.81341	25.6191
0.9165	25.8461
1.01826	26.0377
