Adsorption isotherm of Methane on desolvated [Cu5(L)2(OH)2·(H2O)2·DMA2]·2DMA·EtOH·2H2O
DOI: 10.1039/c5ce00762c
Article source: Figure 4- CH4 experiment
Adsorbate Methane: InChIKey VNWKTOKETHGBQD-UHFFFAOYSA-N
Kind: experiment
Temperature: 273 K
Tabular data in the source: 0
pressure (bar)	uptake (mmol/g)
0.0688	0.00711
0.4188	0.04338
0.7642	0.07275
1.1044	0.09707
2.1079	0.14431
3.1041	0.18971
4.1109	0.22822
5.1144	0.26191
6.1224	0.28687
7.1338	0.31298
8.1372	0.33634
9.1145	0.35373
