Adsorption isotherm of Nitrogen on desolvated [Cu5(L)2(OH)2·(H2O)2·DMA2]·2DMA·EtOH·2H2O
DOI: 10.1039/c5ce00762c
Article source: Figure S14- N2
Adsorbate Nitrogen: InChIKey IJGRMHOSHXDMSA-UHFFFAOYSA-N
Kind: experiment
Temperature: 77 K
Tabular data in the source: 0
pressure (bar)	uptake (cm3(STP)/g)
0.00941	0.2296
0.03926	0.2915
0.10632	0.3241
0.18669	0.3273
0.28184	0.3659
0.40029	0.3397
0.49544	0.3459
0.59059	0.3785
0.68492	0.5054
0.77933	0.7147
0.8733	1.1565
0.96101	2.5757
