Adsorption isotherm of Ethene on desolvated [Cu5(L)2(OH)2·(H2O)2·DMA2]·2DMA·EtOH·2H2O
DOI: 10.1039/c5ce00762c
Article source: Figure S14- C2H4
Adsorbate Ethene: InChIKey VGGSQFUCUMXWEO-UHFFFAOYSA-N
Kind: experiment
Temperature: 195 K
Tabular data in the source: 0
pressure (bar)	uptake (cm3(STP)/g)
0.03176	0.2356
0.05992	0.374
0.08617	0.4006
0.11103	0.5538
0.15382	0.5715
0.20433	0.6306
0.25522	0.5895
0.3058	0.625
0.38191	0.6311
0.4322	0.6783
0.48272	0.7138
0.53397	0.711
0.5936	0.7289
0.6436	0.7673
0.69463	0.8028
0.74485	0.7882
0.79573	0.8354
0.84639	0.8267
0.89683	0.8181
0.94786	0.827
0.99727	0.8331
