Adsorption isotherm of Ethane on desolvated [Cu5(L)2(OH)2·(H2O)2·DMA2]·2DMA·EtOH·2H2O
DOI: 10.1039/c5ce00762c
Article source: Figure S14- C2H6
Adsorbate Ethane: InChIKey OTMSDBZUPAUEDD-UHFFFAOYSA-N
Kind: experiment
Temperature: 195 K
Tabular data in the source: 0
pressure (bar)	uptake (cm3(STP)/g)
0.01044	0.0707
0.02669	0.0913
0.05184	0.0944
0.07838	0.1327
0.10632	0.1563
0.13448	0.1917
0.1575	0.1594
0.18419	0.1536
0.20787	0.1655
0.23382	0.1508
0.2589	0.1362
0.28448	0.0892
0.30971	0.0863
0.36118	0.0511
0.41228	0.0218
0.46272	-0.0516
0.51338	-0.1104
0.56802	-0.1573
0.61787	-0.1895
0.66883	-0.2483
0.71941	-0.3335
0.77052	-0.3951
0.82074	-0.4568
0.87162	-0.5038
0.92236	-0.5654
0.97221	-0.6212
0.99993	-0.6535
