Adsorption isotherm of Oxygen on desolvated [Cu5(L)2(OH)2·(H2O)2·DMA2]·2DMA·EtOH·2H2O
DOI: 10.1039/c5ce00762c
Article source: Figure S14- O2
Adsorbate Oxygen: InChIKey MYMOFIZGZYHOMD-UHFFFAOYSA-N
Kind: experiment
Temperature: 195 K
Tabular data in the source: 0
pressure (bar)	uptake (cm3(STP)/g)
0.06853	0.274
0.14617	0.5303
0.1861	0.6011
0.22499	0.7131
0.27441	0.8516
0.32477	0.9724
0.37514	1.0697
0.42521	1.2053
0.47462	1.329
0.5258	1.4322
0.57469	1.5589
0.62587	1.6798
0.67594	1.7859
0.72543	1.895
0.77535	2.0188
0.82557	2.0896
0.87491	2.2045
0.92557	2.3136
0.97528	2.4403
1.01528	2.5376
