Adsorption isotherm of Carbon Dioxide on desolvated [Cu5(L)2(OH)2·(H2O)2·DMA2]·2DMA·EtOH·2H2O
DOI: 10.1039/c5ce00762c
Article source: Figure 4- CO2 experiment
Adsorbate Carbon Dioxide: InChIKey CURLTUGMZLYLDI-UHFFFAOYSA-N
Kind: experiment
Temperature: 273 K
Tabular data in the source: 0
pressure (bar)	uptake (mmol/g)
0.0505	0.09002
0.3382	0.34285
0.662	0.48223
0.9674	0.57498
1.2781	0.6558
2.2527	0.83532
3.2293	0.98453
4.2171	1.12478
5.2029	1.2563
6.1926	1.39081
7.1941	1.52922
8.1844	1.67383
9.1171	1.81478
