Adsorption isotherm of Methane on desolvated [Cu5(L)2(OH)2·(H2O)2·DMA2]·2DMA·EtOH·2H2O
DOI: 10.1039/c5ce00762c
Article source: Figure S14- CH4
Adsorbate Methane: InChIKey VNWKTOKETHGBQD-UHFFFAOYSA-N
Kind: experiment
Temperature: 195 K
Tabular data in the source: 0
pressure (bar)	uptake (cm3(STP)/g)
0.03353	-0.0028
0.06007	-0.0234
0.08559	-0.0115
0.11154	-0.0203
0.15412	-0.0466
0.20478	0.0094
0.25515	0.0979
0.30522	0.0509
0.38206	0.1012
0.43265	0.0925
0.48316	0.0809
0.53456	0.0663
0.59456	0.1136
0.64434	0.1314
0.69559	0.108
0.74478	-0.0214
0.7964	-0.0919
0.84757	-0.1535
0.89684	-0.33
0.94824	-0.3505
0.9978	-0.2267
