Adsorption isotherm of Nitrogen on PCN-308
DOI: 10.1002/chem.201203297
Adsorbate Nitrogen: InChIKey IJGRMHOSHXDMSA-UHFFFAOYSA-N
Temperature: 273 K
Tabular data in the source: 0
pressure (bar)	uptake (cm3(STP)/g)
0.118377	2.50064
0.135681	2.41079
0.176057	2.20116
0.193361	2.11132
0.204896	2.05142
0.216459	2.61444
0.236674	3.13253
0.27705	2.9229
0.294353	2.83306
0.314568	3.35115
0.357828	3.12654
0.378042	3.64464
0.38381	3.61469
0.395346	3.5548
0.415534	3.44998
0.435722	3.34516
0.455936	3.86326
0.467499	4.42628
0.47324	3.77342
0.496339	4.27654
0.519411	4.15675
0.536714	4.0669
0.554018	3.97706
0.571322	3.88722
0.594421	4.39034
0.620403	4.87849
0.634823	4.80362
0.652127	4.71377
0.675199	4.59398
0.695387	4.48917
0.71269	4.39932
0.732905	4.91742
0.755977	4.79763
0.779049	4.67784
0.796379	5.21091
0.807915	5.15101
0.833871	5.01625
0.854059	4.91143
0.859827	4.88148
0.874246	4.80661
0.885809	5.36963
0.894461	5.32471
0.914649	5.21989
0.937721	5.1001
0.955024	5.01026
