Adsorption isotherm of Hydrogen on PCN-308
DOI: 10.1002/chem.201203297
Adsorbate Hydrogen: InChIKey UFHFLCQGNIYNRP-UHFFFAOYSA-N
Temperature: 77 K
Tabular data in the source: 0
pressure (bar)	uptake (wt%)
0.12344	0.865115
0.14983	1.00792
0.178334	1.10478
0.202485	1.20839
0.228798	1.2988
0.259456	1.3759
0.281387	1.45343
0.312044	1.53052
0.336147	1.60139
0.362423	1.6656
0.386497	1.71682
0.412763	1.77448
0.570262	2.05495
0.603091	2.12539
0.620573	2.14419
0.646839	2.20185
0.675239	2.22665
0.699294	2.26477
0.727713	2.30268
0.751768	2.3408
0.775795	2.35927
0.804224	2.40372
0.836996	2.43486
0.863243	2.47943
0.889451	2.49779
0.913488	2.52281
0.939715	2.55427
0.970287	2.57242
0.994352	2.61709
1.01618	2.62257
