Adsorption isotherm of Nitrogen on PCN-307
DOI: 10.1002/chem.201203297
Adsorbate Nitrogen: InChIKey IJGRMHOSHXDMSA-UHFFFAOYSA-N
Temperature: 77 K
Tabular data in the source: 0
pressure (bar)	uptake (cm3(STP)/g)
0.00510885	37.6349
0.00528837	55.3556
0.00544546	70.8612
0.00566986	93.0121
0.00587182	112.948
0.00611865	137.314
0.00634305	159.465
0.00654501	179.401
0.00674698	199.336
0.00697138	221.487
0.00719578	243.638
0.00731546	22.1185
0.00742018	265.789
0.00766702	290.155
0.00780166	303.445
0.00800363	323.381
0.00825046	347.747
0.00834023	356.608
0.00856462	378.758
0.00881146	403.124
0.0136959	418.608
0.0186252	438.523
0.0377143	456.157
0.118259	473.511
0.156123	477.769
0.177419	479.887
0.196328	479.801
0.212874	479.725
0.234169	481.844
0.255465	483.962
0.274375	483.875
0.293307	486.004
0.312216	485.918
0.328761	485.843
0.347693	487.971
0.368989	490.089
0.387899	490.003
0.409172	489.906
0.425718	489.831
0.447014	491.949
0.465923	491.863
0.484832	491.776
0.503764	493.905
0.522696	496.034
0.541628	498.163
0.560538	498.077
0.579448	497.99
0.60072	497.893
0.622016	500.012
0.64097	504.355
0.65988	504.269
0.676448	506.409
0.697721	506.312
0.719017	508.43
0.74029	508.333
0.756859	510.473
0.780517	512.58
0.794699	512.515
0.815973	512.418
0.837246	512.321
0.853792	512.246
