Adsorption isotherm of Methane on PCN-305
DOI: 10.1002/chem.201203297
Adsorbate Methane: InChIKey VNWKTOKETHGBQD-UHFFFAOYSA-N
Temperature: 273 K
Tabular data in the source: 0
pressure (bar)	uptake (cm3(STP)/g)
0.179569	6.73076
0.202724	7.25763
0.257762	9.52124
0.280891	9.42517
0.335929	11.6888
0.361948	11.5807
0.399613	13.2934
0.416959	13.2214
0.437223	13.7602
0.457488	14.2991
0.495125	15.3889
0.518281	15.9158
0.573265	16.9335
0.596447	18.0833
0.657213	19.077
0.677477	19.6159
0.755644	21.7834
0.778799	22.3103
0.91484	25.4835
0.940887	25.9984
0.975606	26.4772
0.992953	26.4052
1.019	26.92
