Adsorption isotherm of Carbon Dioxide on PCN-308
DOI: 10.1002/chem.201203297
Adsorbate Carbon Dioxide: InChIKey CURLTUGMZLYLDI-UHFFFAOYSA-N
Temperature: 273 K
Tabular data in the source: 0
pressure (bar)	uptake (cm3(STP)/g)
0.0379619	8.56506
0.0701146	16.5312
0.0994033	25.1323
0.119857	30.0317
0.14031	34.9312
0.157846	39.2197
0.178272	43.4963
0.198699	47.7728
0.219098	51.4264
0.239524	55.7029
0.259924	59.3565
0.277432	63.0221
0.297805	66.0527
0.321095	69.6943
0.338604	73.3599
0.358976	76.3905
0.379375	80.0441
0.399775	83.6977
0.420147	86.7284
0.44052	89.759
0.460892	92.7896
0.478373	95.8323
0.498746	98.8629
0.519118	101.894
0.539491	104.924
0.556945	107.344
0.577317	110.375
0.597663	112.782
0.620926	115.801
0.638408	118.844
0.658753	121.251
0.679098	123.659
0.699471	126.69
0.716925	129.109
0.740162	131.505
0.757616	133.925
0.777988	136.955
0.798334	139.363
0.818679	141.771
0.839025	144.179
0.85937	146.586
0.876824	149.006
0.89717	151.414
0.920406	153.809
0.937834	155.606
0.958179	158.014
0.978497	159.799
0.998843	162.206
1.01919	164.614
