Adsorption isotherm of Hydrogen on PCN-305
DOI: 10.1002/chem.201203297
Adsorbate Hydrogen: InChIKey UFHFLCQGNIYNRP-UHFFFAOYSA-N
Temperature: 77 K
Tabular data in the source: 0
pressure (bar)	uptake (wt%)
0.0176724	0.149787
0.0331441	0.286581
0.0376122	0.358414
0.0398225	0.377956
0.0727475	0.513893
0.0969458	0.650259
0.121106	0.760426
0.149611	0.857279
0.175914	0.94114
0.202199	1.0119
0.228484	1.08266
0.254778	1.15997
0.278862	1.21774
0.30731	1.2753
0.335757	1.33285
0.362004	1.37741
0.38826	1.42852
0.412325	1.47319
0.467	1.56221
0.519464	1.63169
0.545692	1.66315
0.598166	1.73917
0.622222	1.77729
0.652803	1.80199
0.676849	1.83356
0.700895	1.86513
0.729285	1.88339
0.755522	1.9214
0.783922	1.9462
0.83854	1.99592
0.886612	2.04596
0.915012	2.07077
0.980538	2.11995
0.995829	2.1323
1.02424	2.16366
