Adsorption isotherm of Nitrogen on PCN-306
DOI: 10.1002/chem.201203297
Adsorbate Nitrogen: InChIKey IJGRMHOSHXDMSA-UHFFFAOYSA-N
Temperature: 77 K
Tabular data in the source: 0
pressure (bar)	uptake (cm3(STP)/g)
0.00357545	119.604
0.00375497	137.325
0.00431597	192.702
0.00489941	250.294
0.00497421	24.3444
0.0053557	62.0009
0.00566986	93.0121
0.00570725	330.037
0.00638794	163.895
0.00697138	221.487
0.00768946	292.37
0.00840754	363.253
0.00899098	420.845
0.0110854	394.253
0.0117586	460.706
0.0120055	485.072
0.012185	502.793
0.0149526	542.653
0.0273993	604.622
0.0654651	628.815
0.0820783	635.385
0.101032	639.729
0.12235	644.062
0.141282	646.191
0.157828	646.116
0.174397	648.255
0.195692	650.373
0.214647	654.717
0.233556	654.631
0.25483	654.534
0.271398	656.674
0.29267	656.577
0.313988	660.91
0.330534	660.834
0.349444	660.748
0.368376	662.877
0.389649	662.78
0.408559	662.694
0.427468	662.608
0.448764	664.726
0.467673	664.639
0.486583	664.553
0.507856	664.456
0.524402	664.381
0.545675	664.284
0.564584	664.198
0.583516	666.326
0.604812	668.444
0.621358	668.369
0.640268	668.283
0.66154	668.186
0.68045	668.1
0.701723	668.002
0.720655	670.131
0.739565	670.045
0.760838	669.948
0.779747	669.862
0.798656	669.776
0.817566	669.689
0.855385	669.517
0.871931	669.441
0.895568	669.334
0.914477	669.247
0.933387	669.161
