Adsorption isotherm of Hydrogen on PCN-306
DOI: 10.1002/chem.201203297
Adsorbate Hydrogen: InChIKey UFHFLCQGNIYNRP-UHFFFAOYSA-N
Temperature: 77 K
Tabular data in the source: 0
pressure (bar)	uptake (wt%)
0.0110322	0.0846109
0.0771775	0.559527
0.123373	0.819267
0.154079	0.929112
0.176038	1.02629
0.204533	1.11659
0.230818	1.18735
0.257103	1.25811
0.281215	1.33553
0.307491	1.39974
0.333766	1.46395
0.362213	1.52151
0.414744	1.63683
0.438819	1.68805
0.469429	1.7324
0.489112	1.76418
0.521922	1.82152
0.543796	1.85975
0.570033	1.89776
0.598461	1.94222
0.62689	1.98667
0.648754	2.01835
0.70341	2.09426
0.729637	2.12573
0.755865	2.15719
0.777739	2.19542
0.806148	2.22677
0.832376	2.25823
0.860775	2.28304
0.88264	2.31472
0.911039	2.33952
0.939439	2.36433
0.965667	2.39579
0.991885	2.4207
1.0181	2.44562
