Adsorption isotherm of Nitrogen on PCN-305
DOI: 10.1002/chem.201203297
Adsorbate Nitrogen: InChIKey IJGRMHOSHXDMSA-UHFFFAOYSA-N
Temperature: 273 K
Tabular data in the source: 0
pressure (bar)	uptake (cm3(STP)/g)
0.33555	2.9676
0.413636	3.26631
0.439655	3.15823
0.520658	4.06788
0.546678	3.9598
0.572697	3.85173
0.595826	3.75566
0.627654	4.2465
0.653673	4.13843
0.676802	4.04236
0.702821	3.93428
0.728841	3.82621
0.757751	3.70612
0.780879	3.61005
0.809817	4.11291
0.913922	4.30354
0.939941	4.19547
0.965987	4.71033
0.992007	4.60226
1.01803	4.49418
