Adsorption isotherm of Nitrogen on PCN-305
DOI: 10.1002/chem.201203297
Adsorbate Nitrogen: InChIKey IJGRMHOSHXDMSA-UHFFFAOYSA-N
Temperature: 77 K
Tabular data in the source: 0
pressure (bar)	uptake (cm3(STP)/g)
0.00258809	22.1401
0.00272272	35.4306
0.00310421	73.0871
0.00332861	95.238
0.00355301	117.389
0.00507893	268.015
0.00522106	48.7104
0.00550529	310.101
0.00577458	336.683
0.0059541	354.403
0.00618598	143.959
0.00622337	380.984
0.00650014	174.97
0.0068143	205.982
0.00710602	234.778
0.0088339	405.339
0.0114444	429.695
0.0116688	451.846
0.0118933	473.996
0.0121177	496.147
0.0122522	509.438
0.0171143	522.707
0.02434	535.965
0.0362706	546.986
0.0481564	553.578
0.0576785	560.18
0.0813826	566.717
0.0956096	571.083
0.119269	573.19
0.135859	577.545
0.157133	577.448
0.176087	581.792
0.19736	581.695
0.211565	583.845
0.232838	583.748
0.249384	583.673
0.265929	583.597
0.291952	585.694
0.325067	587.758
0.35109	589.855
0.367636	589.779
0.388909	589.682
0.407818	589.596
0.42675	591.725
0.443296	591.649
0.462205	591.563
0.488206	591.445
0.507138	593.573
0.523683	593.498
0.544957	593.401
0.56623	593.304
0.58514	593.218
0.604049	593.131
0.622981	595.26
0.64189	595.174
0.658436	595.099
0.679687	592.787
0.698619	594.915
0.719892	594.818
0.741165	594.721
0.755347	594.657
0.77662	594.56
0.793166	594.484
0.819167	594.366
0.835713	594.29
0.849894	594.226
0.887714	594.053
0.920806	593.902
