Adsorption isotherm of Methane on PCN-308
DOI: 10.1002/chem.201203297
Adsorbate Methane: InChIKey VNWKTOKETHGBQD-UHFFFAOYSA-N
Temperature: 273 K
Tabular data in the source: 0
pressure (bar)	uptake (cm3(STP)/g)
0.0405827	2.32364
0.057983	3.49747
0.0782474	4.03636
0.10143	5.18617
0.115885	5.12613
0.136176	6.28795
0.156441	6.82683
0.176705	7.36571
0.196996	8.52753
0.217234	8.44347
0.237498	8.98236
0.254898	10.1562
0.278054	10.6831
0.298318	11.2219
0.315718	12.3958
0.338847	12.2997
0.356247	13.4735
0.376484	13.3895
0.393858	13.9404
0.41704	15.0902
0.434386	15.0181
0.457569	16.1679
0.474942	16.7188
0.492315	17.2697
0.515471	17.7966
0.535735	18.3355
0.553108	18.8864
0.576264	19.4132
0.593637	19.9641
0.613901	20.503
0.634166	21.0419
0.65443	21.5808
0.674694	22.1196
0.692068	22.6705
0.712332	23.2094
0.732596	23.7483
0.752834	23.6642
0.773125	24.8261
0.793362	24.742
0.813627	25.2809
0.833891	25.8198
0.851264	26.3707
0.87442	26.8975
0.891766	26.8255
0.91203	27.3644
0.932295	27.9032
0.949668	28.4541
0.972823	28.981
0.990224	30.1548
1.01046	30.0708
