Adsorption isotherm of Hydrogen on PCN-307
DOI: 10.1002/chem.201203297
Adsorbate Hydrogen: InChIKey UFHFLCQGNIYNRP-UHFFFAOYSA-N
Temperature: 77 K
Tabular data in the source: 0
pressure (bar)	uptake (wt%)
0.0729761	0.671087
0.0950119	0.82066
0.127946	0.963147
0.154269	1.06011
0.17841	1.15717
0.206915	1.25403
0.233228	1.34444
0.257341	1.42186
0.281425	1.47962
0.314274	1.56316
0.336167	1.61449
0.362432	1.67215
0.388707	1.73636
0.417126	1.77427
0.445583	1.83837
0.469639	1.87649
0.495895	1.9276
0.522141	1.97217
0.544015	2.01039
0.603034	2.0861
0.62709	2.12422
0.655489	2.14902
0.677382	2.20035
0.73201	2.25662
0.756065	2.29473
0.782293	2.3262
0.80853	2.36421
0.839102	2.38236
0.860956	2.40749
0.887193	2.4455
0.913402	2.46386
0.93962	2.48877
0.970201	2.51347
0.992066	2.54515
1.02047	2.56996
