Adsorption isotherm of Carbon Dioxide on PCN-305
DOI: 10.1002/chem.201203297
Adsorbate Carbon Dioxide: InChIKey CURLTUGMZLYLDI-UHFFFAOYSA-N
Temperature: 273 K
Tabular data in the source: 0
pressure (bar)	uptake (cm3(STP)/g)
0.0467431	11.0208
0.0701146	16.5312
0.0992953	22.6405
0.122667	28.1509
0.151793	33.0144
0.178056	38.5127
0.204265	42.7653
0.227609	47.6527
0.259627	52.5041
0.280026	56.1577
0.306235	60.4102
0.338225	64.6387
0.361543	68.9032
0.387751	73.1558
0.416851	77.3963
0.443005	80.4029
0.466296	84.0445
0.495368	87.662
0.52155	91.2916
0.547732	94.9212
0.576804	98.5387
0.602959	101.545
0.626222	104.564
0.652404	108.194
0.681449	111.188
0.707604	114.195
0.733758	117.201
0.75994	120.831
0.81514	126.832
0.841294	129.839
0.87034	132.833
0.893603	135.852
0.913895	137.014
0.951694	141.841
1.02146	150.274
