Adsorption isotherm of Nitrogen on PCN-308
DOI: 10.1002/chem.201203297
Adsorbate Nitrogen: InChIKey IJGRMHOSHXDMSA-UHFFFAOYSA-N
Temperature: 77 K
Tabular data in the source: 0
pressure (bar)	uptake (cm3(STP)/g)
0.00276761	39.8608
0.00299201	62.0117
0.00319397	81.9475
0.00339593	101.883
0.00495177	22.1293
0.00598402	124.023
0.00618598	143.959
0.00643281	168.325
0.00661234	186.046
0.00685917	210.412
0.00706114	230.348
0.00730798	254.714
0.00750994	274.649
0.00777922	301.23
0.0079363	316.736
0.00825046	347.747
0.00847486	369.898
0.0088339	405.339
0.00908075	429.705
0.00937247	458.502
0.0166206	473.975
0.0357769	498.255
0.30778	514.736
0.333781	514.617
0.350327	514.542
0.3716	514.445
0.390509	514.358
0.411783	514.261
0.428351	516.401
0.444875	514.111
0.463783	514.024
0.489784	513.906
0.503966	513.841
0.527626	515.948
0.544172	515.873
0.565445	515.776
0.58674	517.894
0.605649	517.808
0.624559	517.721
0.638741	517.657
0.652924	517.592
0.674197	517.495
0.695493	519.613
0.719129	519.505
0.764039	519.301
0.780608	521.44
0.837358	523.397
0.917724	523.03
