Adsorption isotherm of Nitrogen on C1548H2396O756S234Zn98
DOI: 10.1021/Cg901312t
Adsorbate Nitrogen: InChIKey IJGRMHOSHXDMSA-UHFFFAOYSA-N
Temperature: 77 K
Tabular data in the source: 0
pressure (bar)	uptake (cm3(STP)/g)
0.0217927	91.0227
0.0549464	96.416
0.0768092	98.0212
0.102214	99.0444
0.127618	100.068
0.15297	100.654
0.178357	101.532
0.200097	102.117
0.225413	102.412
0.247136	102.853
0.272453	103.148
0.297752	103.297
0.323104	103.883
0.344826	104.324
0.37372	104.328
0.399054	104.769
0.424353	104.918
0.442446	105.212
0.471392	105.653
0.49308	105.802
0.518379	105.951
0.543661	105.955
0.594312	106.691
0.615999	106.84
0.637704	107.134
0.666615	107.284
0.691897	107.288
0.713654	108.02
0.738953	108.169
0.76427	108.464
0.789587	108.759
0.814921	109.2
0.854842	110.808
0.883806	111.395
0.905546	111.98
0.927338	113.003
0.956425	114.609
