Adsorption isotherm of Carbon Dioxide on [Rh(II)2(bza)4(2-epyz)]n
DOI: 10.1021/Ic051952e
Adsorbate Carbon Dioxide: InChIKey CURLTUGMZLYLDI-UHFFFAOYSA-N
Temperature: 195 K
Tabular data in the source: 0
pressure (bar)	uptake (cm3(STP)/g)
0.00238161	0.00060775
0.0167021	1.03986
0.102602	6.49867
0.176493	8.58873
0.186058	9.88567
0.207523	10.9267
0.228989	11.9678
0.245668	12.231
0.264744	13.0125
0.264782	14.3071
0.264859	16.8961
0.267349	20.5213
0.277484	40.977
0.289731	52.3717
0.292221	55.9969
0.297107	60.1405
0.301978	63.7664
0.311597	66.8756
0.31643	69.207
0.326033	71.7984
0.338011	74.1316
0.349957	75.4291
0.361889	76.2089
0.376209	77.2481
0.38814	78.0279
0.445376	80.6315
0.493054	82.197
0.545496	83.7638
0.593166	85.0705
0.643219	86.3777
0.690874	87.1666
0.740911	87.9561
0.790955	89.0044
0.83384	89.5332
0.88625	90.0643
0.933906	90.8532
0.97679	91.3819
