Adsorption isotherm of Nitrogen on NH2-MIL-125(Ti)
DOI: 10.1016/j.jhazmat.2014.11.039
Article source: Figure 3a- N2
Adsorbate Nitrogen: InChIKey IJGRMHOSHXDMSA-UHFFFAOYSA-N
Kind: experiment
Temperature: 77 K
Tabular data in the source: 0
pressure (bar)	uptake (cm3(STP)/g)
0.000101	0.499
0.000345	262.688
0.001034	276.149
0.00152	283.079
0.003111	291.206
0.003405	293.849
0.005198	296.491
0.006495	298.685
0.008673	302.126
0.01067	306.234
0.01226	307.412
0.035737	320.479
0.056144	325.221
0.094658	332.11
0.110383	333.709
0.135664	336.906
0.160945	338.807
0.184726	341.156
0.211202	342.06
0.235287	344.31
0.268633	345.215
0.273709	347.161
0.288634	347.513
0.314219	348.317
0.338304	349.47
0.363686	350.673
0.366472	349.726
0.400609	352.527
0.421117	352.781
0.442811	353.933
0.475751	356.234
0.492977	355.89
0.526616	360.834
0.529707	360.575
0.545432	358.296
0.56743	358.102
0.583247	362.144
0.603259	359.706
0.619775	360.856
0.636402	363.603
0.655806	362.162
0.671531	362.814
0.688453	365.36
0.708464	364.767
0.721799	364.471
0.741699	367.118
0.745286	366.272
0.783708	367.378
0.792665	369.325
0.803011	368.33
0.82511	369.482
0.847705	371.831
0.860644	372.133
0.878761	373.234
0.89548	374.934
0.899361	375.034
0.933102	377.835
0.956184	382.327
0.983258	393.103
1.00263	445.755
