Adsorption isotherm of Nitrogen on IRMOF-1
DOI: 10.1021/Ja8007159
Adsorbate Nitrogen: InChIKey IJGRMHOSHXDMSA-UHFFFAOYSA-N
Temperature: 77 K
Tabular data in the source: 0
pressure (bar)	uptake (cm3(STP)/g)
0.00333283	3.33333
0.00999849	6.11111
0.0316619	8.88889
0.0599909	10.5556
0.0816543	11.6667
0.0983185	12.2222
0.116649	12.7778
0.138312	13.8889
0.156643	14.4444
0.178306	15
0.198303	15.5556
0.244963	15
0.296622	16.6667
0.343282	16.6667
0.391608	17.7778
0.439934	18.3333
0.48826	18.8889
0.538252	19.4444
0.586578	20.5556
0.633238	20.5556
0.681564	21.6667
0.72989	23.3333
0.779882	25
0.798213	26.1111
0.828208	28.3333
0.853205	31.1111
0.878201	35.5556
0.903197	42.2222
0.928193	52.7778
0.94819	74.4444
0.954856	88.3333
0.963188	121.667
0.968187	167.222
