Adsorption isotherm of Nitrogen on CuBTC
DOI: 10.1021/Ja8007159
Adsorbate Nitrogen: InChIKey IJGRMHOSHXDMSA-UHFFFAOYSA-N
Temperature: 77 K
Tabular data in the source: 0
pressure (bar)	uptake (cm3(STP)/g)
0.00166928	117.6
0.00333856	235.2
0.0133542	312.667
0.0333856	319.2
0.0667711	328.533
0.0801254	330.4
0.100157	334.133
0.121857	336
0.156912	340.667
0.176944	341.6
0.198644	341.6
0.245384	344.4
0.292124	346.267
0.342202	347.2
0.390611	349.067
0.43902	349.067
0.487429	348.133
0.535838	351.867
0.632656	352.8
0.682735	351.867
0.732813	351.867
0.779553	351.867
0.827962	352.8
0.853001	352.8
0.899741	351.867
0.923111	353.733
0.973189	356.533
