Adsorption isotherm of Nitrogen on MOF-74-Ni
DOI: 10.1021/Ja8007159
Adsorbate Nitrogen: InChIKey IJGRMHOSHXDMSA-UHFFFAOYSA-N
Temperature: 77 K
Tabular data in the source: 0
pressure (bar)	uptake (cm3(STP)/g)
0.00166928	20.0459
0.00333856	122.675
0.00500784	165.973
0.00834639	266.198
0.0166928	273.421
0.030047	279.045
0.0484091	282.267
0.0984874	285.516
0.126865	288.746
0.146896	289.564
0.171936	290.387
0.193636	291.207
0.265415	294.473
0.287116	293.689
0.337194	295.334
0.380595	296.172
0.429005	296.212
0.487429	298.665
0.560878	299.527
0.602609	300.364
0.652688	300.405
0.699428	301.245
0.749506	302.89
0.794576	302.927
0.844655	303.771
0.894733	304.614
0.944812	303.853
0.976528	305.483
