Adsorption isotherm of Nitrogen on MOF-74-Ni
DOI: 10.1021/Ja8007159
Adsorbate Nitrogen: InChIKey IJGRMHOSHXDMSA-UHFFFAOYSA-N
Temperature: 77 K
Tabular data in the source: 0
pressure (bar)	uptake (cm3(STP)/g)
0.0116849	232.526
0.0333856	239.76
0.0667711	240.59
0.0801254	242.204
0.100157	243.023
0.116849	244.64
0.13855	244.658
0.151904	245.471
0.173605	246.29
0.193636	247.109
0.242045	247.95
0.292124	248.793
0.340533	248.833
0.388942	250.477
0.434012	251.316
0.48576	252.16
0.534169	252.2
0.584247	253.845
0.632656	254.687
0.679396	255.527
0.727805	256.369
0.774545	258.011
0.797915	258.03
0.826293	259.657
0.849663	259.677
0.899741	263.727
0.921442	269.357
0.944812	279.8
0.954827	288.628
0.959835	304.667
0.966512	318.303
0.968181	338.349
