Adsorption isotherm of Nitrogen on IRMOF-1
DOI: 10.1021/Ja8007159
Adsorbate Nitrogen: InChIKey IJGRMHOSHXDMSA-UHFFFAOYSA-N
Temperature: 77 K
Tabular data in the source: 0
pressure (bar)	uptake (cm3(STP)/g)
0.00166642	0.00166642
0.00333283	128.333
0.00499925	135.556
0.00666566	140
0.00999849	6.11111
0.0116649	143.889
0.0299955	151.667
0.0599909	156.667
0.0799879	158.333
0.0999849	160.556
0.118315	161.667
0.136646	163.333
0.156643	164.444
0.17664	165.556
0.198303	166.111
0.243297	167.222
0.291623	169.444
0.323285	170.556
0.338282	170.556
0.389941	170.556
0.436601	171.667
0.486593	172.222
0.55325	172.778
0.603242	173.889
0.679897	174.444
0.72989	175.556
0.798213	177.778
0.828208	180
0.849872	181.667
0.878201	184.444
0.898198	187.778
0.92486	197.222
0.949857	213.889
0.954856	223.889
