Adsorption isotherm of Nitrogen on TPE-COF-OH
DOI: 10.1021/jacs.0c05596
Article source: Figure S8a
Adsorbate Nitrogen: InChIKey IJGRMHOSHXDMSA-UHFFFAOYSA-N
Kind: experiment
Temperature: 77 K
Tabular data in the source: 0
pressure (bar)	uptake (cm3(STP)/g)
0.006414	24.7913
0.008513	47.5764
0.004153	62.1109
0.004103	80.7641
0.001886	101.503
0.001853	113.938
0.008256	142.915
0.006039	163.654
0.005995	180.234
0.00595	196.815
0.008071	211.31
0.014508	227.85
0.02526	246.437
0.036034	256.734
0.053279	271.136
0.06191	275.228
0.07916	287.557
0.098576	297.801
0.117987	310.117
0.135243	320.374
0.156809	334.749
0.167561	353.336
0.176158	369.864
0.18691	388.451
0.204149	404.925
0.22141	413.109
0.236534	413.017
0.279721	421.042
0.331578	418.651
0.361825	418.465
0.411516	418.16
0.463362	419.915
0.5044	423.808
0.556263	419.345
0.605954	419.04
0.666431	424.886
0.705331	420.503
0.750695	422.297
0.789578	424.131
0.817653	428.103
0.837098	427.984
0.856525	434.083
0.882451	433.923
0.897552	442.121
0.914819	448.233
0.940711	460.509
0.962283	472.812
0.981688	487.201
0.990296	499.583
0.998905	511.965
1.00104	522.315
1.001	536.823
0.145973	347.251
0.158874	369.97
0.160984	388.61
0.163111	401.032
0.176051	409.243
0.193324	413.282
0.238666	423.366
0.292673	425.107
0.35531	430.941
0.402846	428.576
0.452526	432.417
0.510831	442.421
0.558373	437.985
0.603743	437.706
0.653434	437.401
0.703114	441.242
0.742009	438.93
0.780886	442.837
0.811122	446.796
0.841352	452.829
0.865117	452.683
0.895347	458.715
0.906144	460.721
0.934185	477.129
0.955757	489.432
0.962221	495.61
0.970841	503.847
0.981615	514.144
1.00101	532.678
1.00531	538.869
