Adsorption isotherm of Nitrogen on TPE-COF-BF2
DOI: 10.1021/jacs.0c05596
Article source: Figure S8a
Adsorbate Nitrogen: InChIKey IJGRMHOSHXDMSA-UHFFFAOYSA-N
Kind: experiment
Temperature: 77 K
Tabular data in the source: 0
pressure (bar)	uptake (cm3(STP)/g)
0.00642	22.7188
0.01284	45.4773
0.01495	64.1172
0.014888	86.9155
0.021331	101.384
0.021269	124.182
0.02339	138.677
0.025506	155.244
0.031926	178.003
0.038368	192.471
0.053441	211.031
0.066382	219.242
0.083649	225.354
0.103082	229.38
0.120366	229.273
0.141965	231.213
0.157088	231.121
0.183014	230.962
0.200298	230.855
0.224058	232.782
0.256465	232.583
0.271588	232.491
0.291033	232.371
0.308322	230.193
0.360163	234.02
0.422817	233.635
0.476812	239.521
0.526498	241.289
0.574045	234.78
0.623736	234.475
0.688556	232.004
0.725273	235.924
0.764173	231.54
0.779296	231.448
0.809543	231.262
0.846255	237.254
0.87002	237.109
0.895935	241.095
0.919706	238.876
0.943471	238.73
0.958589	240.71
0.988807	250.887
1.00391	259.085
1.00822	261.131
0.100865	250.118
0.139732	258.17
0.198059	259.885
0.221825	259.739
0.286639	259.341
0.327688	259.089
0.392503	258.692
0.429231	258.466
0.474596	260.26
0.541576	257.777
0.589112	255.413
0.634483	255.134
0.677698	252.796
0.725223	254.577
0.75763	254.379
0.785716	254.206
0.805161	254.087
0.826771	251.882
0.865654	253.716
0.895901	253.53
0.932629	253.305
0.949902	257.344
0.969329	263.442
0.98227	271.653
0.995177	292.299
