Adsorption isotherm of Nitrogen on TPE-COF-OMe
DOI: 10.1021/jacs.0c05596
Article source: Figure S8a
Adsorbate Nitrogen: InChIKey IJGRMHOSHXDMSA-UHFFFAOYSA-N
Kind: experiment
Temperature: 77 K
Tabular data in the source: 0
pressure (bar)	uptake (cm3(STP)/g)
0.004271	18.5869
0.008541	37.2135
0.010657	53.7808
0.012773	70.3482
0.014883	88.9881
0.014838	105.569
0.012644	118.017
0.012593	136.671
0.010388	153.264
0.010349	167.772
0.010315	180.208
0.010287	190.571
0.012403	207.138
0.018845	221.606
0.025299	231.929
0.033913	242.239
0.049003	254.582
0.068425	262.753
0.077055	266.845
0.098627	279.148
0.111567	287.359
0.122353	293.51
0.139625	297.549
0.156887	305.733
0.169816	318.089
0.180596	326.313
0.200001	340.702
0.225922	342.615
0.243206	342.509
0.266971	342.363
0.286415	342.244
0.308003	348.329
0.34903	356.368
0.409524	355.996
0.461381	353.606
0.506745	355.4
0.560741	361.286
0.610432	360.981
0.651475	362.802
0.711969	362.431
0.748703	360.133
0.783259	364.066
0.813506	363.88
0.837255	369.952
0.852378	369.859
0.871828	367.667
0.889106	369.634
0.908545	371.587
0.927972	377.686
0.940924	381.751
0.953859	392.035
0.9668	400.245
0.975419	408.483
0.981878	416.733
0.988315	433.274
0.992608	443.61
0.999045	460.151
1.00118	470.501
1.00329	487.068
1.00327	497.431
1.0032	520.229
1.00102	528.533
0.100642	333.021
0.161062	359.594
0.208515	388.318
0.249558	390.139
0.281965	389.94
0.331645	393.78
0.402958	387.125
0.435354	391.071
0.491521	392.799
0.543367	394.553
0.586577	394.288
0.649237	391.831
0.70757	391.473
0.733495	391.314
0.761565	397.36
0.81125	399.127
0.832855	398.995
0.863091	402.954
0.891166	406.927
0.899785	415.164
0.91487	429.579
0.938573	452.232
0.951497	466.66
0.955784	479.069
0.964354	505.96
0.983748	524.494
1.01396	536.743
