Adsorption isotherm of Nitrogen on Mg2(dobdc)
DOI: 10.1039/C0cc03453c
Adsorbate Nitrogen: InChIKey IJGRMHOSHXDMSA-UHFFFAOYSA-N
Temperature: 77 K
Tabular data in the source: 0
pressure (bar)	uptake (mmol/g)
0.00184442	8.55166
0.00338367	12.3792
0.00481154	14.4826
0.00873873	15.2756
0.0165263	15.827
0.0294662	16.1369
0.0449812	16.3088
0.0566158	16.4118
0.0811702	16.5144
0.101851	16.6517
0.121237	16.7544
0.188432	16.9245
0.284052	17.1281
0.368036	17.1942
0.455904	17.3981
0.545058	17.4984
0.635504	17.5988
0.724655	17.6647
0.724658	17.6991
0.811227	17.7996
0.900379	17.8655
