Adsorption isotherm of Hydrogen on Mg2(dobdc)
DOI: 10.1039/C0cc03453c
Adsorbate Hydrogen: InChIKey UFHFLCQGNIYNRP-UHFFFAOYSA-N
Temperature: 87 K
Tabular data in the source: 0
pressure (bar)	uptake (wt%)
0.0028169	0.0224543
0.0056338	0.337043
0.0084507	0.202194
0.0169014	0.621617
0.0225352	0.688998
0.0338028	0.786306
0.0507042	0.876088
0.0676056	0.920926
0.101408	1.01809
0.129577	1.07784
0.197183	1.1748
0.264789	1.24928
0.332394	1.30879
0.402817	1.36827
0.464789	1.41283
0.523944	1.4574
0.594366	1.50191
0.656338	1.53148
0.721127	1.57602
0.788732	1.60556
0.856338	1.6351
0.921127	1.67964
0.988732	1.70918
1.05352	1.73125
1.10704	1.75339
1.16901	1.78296
