Adsorption isotherm of Hydrogen on Mg2(dobdc)
DOI: 10.1039/C0cc03453c
Adsorbate Hydrogen: InChIKey UFHFLCQGNIYNRP-UHFFFAOYSA-N
Temperature: 298 K
Tabular data in the source: 0
pressure (bar)	uptake (wt%)
14.6974	0.178571
19.3084	0.238095
38.9049	0.396825
43.804	0.456349
58.5014	0.575397
78.3862	0.714286
97.6945	0.833333
