Adsorption isotherm of Hydrogen on Mg2(dobdc)
DOI: 10.1039/C0cc03453c
Adsorbate Hydrogen: InChIKey UFHFLCQGNIYNRP-UHFFFAOYSA-N
Temperature: 77 K
Tabular data in the source: 0
pressure (bar)	uptake (wt%)
0.576369	1.74603
2.01729	2.55952
4.89914	2.93651
7.78098	3.05556
11.2392	3.15476
14.6974	3.1746
18.1556	3.13492
21.902	3.09524
25.3602	3.09524
28.8184	3.05556
32.5648	3.01587
36.3112	3.01587
39.7695	3.01587
43.5159	3.01587
47.2622	3.03571
50.7205	3.05556
54.755	3.09524
57.9251	3.13492
61.6715	3.11508
65.7061	3.0754
69.4524	3.05556
73.1988	3.09524
76.9452	3.0754
81.268	3.11508
85.0144	3.11508
89.049	3.1746
92.5072	3.19444
97.1182	3.19444
