Adsorption isotherm of Hydrogen on Mg2(dobdc)
DOI: 10.1039/C0cc03453c
Adsorbate Hydrogen: InChIKey UFHFLCQGNIYNRP-UHFFFAOYSA-N
Temperature: 298 K
Tabular data in the source: 0
pressure (bar)	uptake (wt%)
14.6974	0.119048
19.5965	0.138889
29.3948	0.218254
38.9049	0.257937
43.804	0.277778
58.5014	0.337302
78.3862	0.396825
97.9827	0.436508
