Adsorption isotherm of Hydrogen on Mg2(dobdc)
DOI: 10.1039/C0cc03453c
Adsorbate Hydrogen: InChIKey UFHFLCQGNIYNRP-UHFFFAOYSA-N
Temperature: 77 K
Tabular data in the source: 0
pressure (bar)	uptake (wt%)
2.01729	2.61905
4.89914	3.01587
7.78098	3.21429
11.2392	3.35317
14.4092	3.43254
18.4438	3.49206
21.6138	3.5119
25.072	3.55159
28.8184	3.59127
32.2767	3.59127
36.5994	3.67063
39.7695	3.75
43.2277	3.80952
46.9741	3.88889
50.7205	3.9881
54.755	4.0873
57.9251	4.22619
61.6715	4.22619
65.4179	4.24603
69.1643	4.30556
72.9107	4.40476
77.2334	4.46429
80.6916	4.58333
85.0144	4.64286
88.7608	4.72222
92.7954	4.86111
96.83	4.92063
