Adsorption isotherm of Nitrogen on Fe2O3/C
DOI: 10.1039/c4ra15942j
Article source: Figure  3a
Adsorbate Nitrogen: InChIKey IJGRMHOSHXDMSA-UHFFFAOYSA-N
Kind: experiment
Temperature: 77 K
Tabular data in the source: 0
pressure (bar)	uptake (cm3(STP)/g)
0.131206	92.4
0.137245	93.41
0.167814	101.14
0.195892	106.96
0.202995	107.47
0.22787	111.66
0.232845	112.55
0.261631	116.61
0.265887	116.61
0.294319	120.16
0.296447	121.05
0.325577	123.97
0.329489	124.86
0.357201	126.52
0.36324	127.41
0.388825	130.83
0.394154	131.72
0.421147	133.38
0.427551	134.27
0.451707	137.06
0.457037	137.82
0.485104	139.86
0.492206	141.13
0.518136	142.41
0.522411	144.68
0.551887	148.4
0.552616	148.49
0.583865	148.89
0.586013	152.3
0.620454	151.94
0.624729	154.98
0.652786	155
0.655998	158.79
0.687257	159.57
0.690814	163.1
0.71887	162.87
0.720309	167.04
0.748731	168.19
0.754061	171.48
0.782837	172.89
0.787468	177.44
0.804895	183.01
0.811269	177.33
0.842578	186.92
0.844321	185.94
0.875965	195.18
0.877414	196.68
0.9062	207.83
0.915846	224.26
0.948179	229.08
0.950753	252.07
0.978617	298.06
0.980279	264.97
1.00648	344.82
1.00684	345.94
