Adsorption isotherm of Carbon Dioxide on PAF-1
DOI: 10.5012/bkcs.2014.35.1.283
Adsorbate Carbon Dioxide: InChIKey CURLTUGMZLYLDI-UHFFFAOYSA-N
Temperature: 298 K
Tabular data in the source: 0
pressure (bar)	uptake (mg/g)
0.00658518	0.740203
0.095254	5.37387
0.172482	9.23525
0.242559	13.0966
0.418466	21.2485
0.472812	23.9943
0.525727	26.3112
0.620117	30.5158
0.718796	34.7204
0.821767	39.6115
0.924737	43.9019
0.973362	46.3904
1.02056	48.4498
