Adsorption isotherm of Nitrogen on PAF-1
DOI: 10.5012/bkcs.2014.35.1.283
Adsorbate Nitrogen: InChIKey IJGRMHOSHXDMSA-UHFFFAOYSA-N
Temperature: 77 K
Tabular data in the source: 0
pressure (bar)	uptake (mg/g)
0.00702701	31.713
0.00843546	215.516
0.0211115	236.643
0.0746326	272.558
0.123928	293.685
0.187309	302.136
0.24083	306.361
0.328154	314.812
0.425337	325.375
0.521111	340.164
0.623928	346.502
0.714069	361.29
0.815478	373.967
0.873224	386.643
0.921112	407.769
0.995759	439.459
