Adsorption isotherm of Nitrogen on PAF-1
DOI: 10.5012/bkcs.2014.35.1.283
Adsorbate Nitrogen: InChIKey IJGRMHOSHXDMSA-UHFFFAOYSA-N
Temperature: 77 K
Tabular data in the source: 0
pressure (bar)	uptake (mg/g)
0.00372489	0.91182
0.0881033	1.59829
0.199654	1.85571
0.269731	2.02733
0.368411	2.28476
0.468521	2.45637
0.572922	2.7138
0.673032	2.7138
0.774572	2.79961
0.868961	3.14284
0.967641	3.31446
1.01055	3.40027
