Adsorption isotherm of Nitrogen on PAF-1
DOI: 10.5012/bkcs.2014.35.1.283
Adsorbate Nitrogen: InChIKey IJGRMHOSHXDMSA-UHFFFAOYSA-N
Temperature: 77 K
Tabular data in the source: 0
pressure (bar)	uptake (mg/g)
0.00229475	0.997628
0.0981143	0.997628
0.208235	1.08344
0.325507	1.08344
0.418466	1.16925
0.522867	1.25505
0.625837	1.34086
0.725947	1.34086
0.826057	1.42667
0.927597	1.42667
1.02056	1.59829
