Adsorption isotherm of Nitrogen on PAF-1
DOI: 10.5012/bkcs.2014.35.1.283
Adsorbate Nitrogen: InChIKey IJGRMHOSHXDMSA-UHFFFAOYSA-N
Temperature: 77 K
Tabular data in the source: 0
pressure (bar)	uptake (mg/g)
0.00280166	29.6003
0.00702701	399.319
0.0154777	534.53
0.0211115	646.502
0.0366045	752.136
0.0577312	872.558
0.0760411	921.15
0.0999848	984.53
0.16759	1071.15
0.249281	1149.32
0.387309	1244.39
0.546464	1343.68
0.695759	1428.19
0.774633	1478.9
0.847872	1521.15
0.932379	1576.08
0.990126	1662.7
