Adsorption isotherm of Carbon Dioxide on PAF-1
DOI: 10.5012/bkcs.2014.35.1.283
Adsorbate Carbon Dioxide: InChIKey CURLTUGMZLYLDI-UHFFFAOYSA-N
Temperature: 298 K
Tabular data in the source: 0
pressure (bar)	uptake (mg/g)
0.00372489	0.826011
0.0680813	4.00093
0.116706	6.31776
0.192504	9.92172
0.245419	12.2386
0.326937	15.4135
0.424187	19.4465
0.530017	22.8788
0.625837	26.2254
0.724517	29.6577
0.824627	33.09
0.876112	34.6346
0.927597	36.3508
0.976222	37.8095
1.02199	39.1824
