Adsorption isotherm of Nitrogen on ZIF-8
DOI: 10.1039/C4ee01009d
Adsorbate Nitrogen: InChIKey IJGRMHOSHXDMSA-UHFFFAOYSA-N
Temperature: 77 K
Tabular data in the source: 0
pressure (bar)	uptake (cm3(STP)/g)
0.00256338	332.361
0.00769013	311.788
0.0128169	358.862
0.0307606	364.799
0.0487041	370.736
0.0717745	376.688
0.0974085	379.707
0.146113	391.619
0.18969	394.692
0.240957	397.788
0.287099	403.81
0.338366	415.73
0.392197	415.893
0.435774	424.849
0.487041	427.945
0.533183	433.967
0.58445	437.063
0.628027	440.137
0.671605	443.21
0.78183	452.367
0.915126	605.712
0.961267	808.792
