Adsorption isotherm of Carbon Dioxide on ZIF-8
DOI: 10.1039/C4ee01009d
Adsorbate Carbon Dioxide: InChIKey CURLTUGMZLYLDI-UHFFFAOYSA-N
Temperature: 273 K
Tabular data in the source: 0
pressure (bar)	uptake (mmol/g)
0.192593	0.375649
0.394583	0.672542
0.606299	1.02861
0.798656	1.30574
1.01028	1.6224
1.87622	3.0074
2.50154	3.97702
