Adsorption isotherm of Carbon Dioxide on ZIF-8
DOI: 10.1039/C4ee01009d
Adsorbate Carbon Dioxide: InChIKey CURLTUGMZLYLDI-UHFFFAOYSA-N
Temperature: 298 K
Tabular data in the source: 0
pressure (bar)	uptake (mmol/g)
0.0516825	0.0923541
0.079327	0.123058
0.106972	0.153763
0.155249	0.230684
0.200121	0.292173
0.248532	0.338176
0.310699	0.41499
0.355638	0.461019
0.404083	0.499292
0.448988	0.553051
0.500872	0.599027
0.545744	0.660516
0.6011	0.706465
0.653018	0.744711
0.711746	0.813822
0.753246	0.852149
0.798219	0.890449
0.84663	0.936451
0.89848	0.990157
0.943419	1.03619
0.988392	1.07449
