Adsorption isotherm of Nitrogen on ZIF-8
DOI: 10.1039/C4ee01009d
Adsorbate Nitrogen: InChIKey IJGRMHOSHXDMSA-UHFFFAOYSA-N
Temperature: 77 K
Tabular data in the source: 0
pressure (bar)	uptake (cm3(STP)/g)
0.00512675	300.016
0.0153802	347.105
0.0281971	358.909
0.0461408	367.787
0.0692112	376.68
0.0974085	379.707
0.143549	382.788
0.192253	388.817
0.238394	397.781
0.292225	397.944
0.335802	403.958
0.38707	407.054
0.438337	410.151
0.484479	416.173
0.53831	425.159
0.58445	428.24
0.630591	437.203
0.671605	443.21
0.730563	452.212
0.776703	464.116
0.820281	467.189
0.930506	802.817
0.948449	805.813
0.963829	811.741
