Adsorption isotherm of Nitrogen on ZIF-8
DOI: 10.1039/C4ee01009d
Adsorbate Nitrogen: InChIKey IJGRMHOSHXDMSA-UHFFFAOYSA-N
Temperature: 77 K
Tabular data in the source: 0
pressure (bar)	uptake (cm3(STP)/g)
0.00256338	332.361
0.00769013	311.788
0.0128169	358.862
0.0307606	364.799
0.0487041	370.736
0.0717745	376.688
0.0974085	379.707
0.146113	391.619
0.18969	394.692
0.240957	397.788
0.287099	403.81
0.338366	415.73
0.392197	415.893
0.438337	427.798
0.481915	427.93
0.530619	433.959
0.581887	442.938
0.630591	451.909
0.674168	457.923
0.722872	463.953
0.776703	478.822
0.827971	496.624
0.930506	796.935
0.943323	805.797
0.961267	814.675
