Adsorption isotherm of Carbon Dioxide on ZIF-8
DOI: 10.1039/C4ee01009d
Adsorbate Carbon Dioxide: InChIKey CURLTUGMZLYLDI-UHFFFAOYSA-N
Temperature: 298 K
Tabular data in the source: 0
pressure (bar)	uptake (mmol/g)
0.0482102	0.092381
0.10006	0.146086
0.151877	0.207522
0.2072	0.2612
0.255544	0.322662
0.300517	0.360962
0.352434	0.399208
0.404284	0.452914
0.449223	0.498943
0.497635	0.544946
0.546046	0.590948
0.59793	0.636924
0.649814	0.6829
0.698225	0.728903
0.750109	0.774878
0.795082	0.813178
0.840021	0.859208
0.895343	0.912886
0.968061	0.958701
0.988795	0.981729
