Adsorption isotherm of Carbon Dioxide on ZIF-8
DOI: 10.1039/C4ee01009d
Adsorbate Carbon Dioxide: InChIKey CURLTUGMZLYLDI-UHFFFAOYSA-N
Temperature: 298 K
Tabular data in the source: 0
pressure (bar)	uptake (mmol/g)
0.0274432	0.0770826
0.0583923	0.146409
0.0995572	0.262032
0.147767	0.354413
0.202922	0.446741
0.251199	0.523662
0.299477	0.600584
0.347754	0.677505
0.399503	0.7544
0.444375	0.815889
0.499665	0.877297
0.547942	0.954219
0.59632	1.00795
0.64463	1.07714
0.699886	1.14628
0.744758	1.20777
0.796608	1.26148
0.84148	1.32296
0.89333	1.37667
0.965914	1.4534
0.983175	1.47646
