Adsorption isotherm of Carbon Dioxide on ZIF-8
DOI: 10.1039/C4ee01009d
Adsorbate Carbon Dioxide: InChIKey CURLTUGMZLYLDI-UHFFFAOYSA-N
Temperature: 273 K
Tabular data in the source: 0
pressure (bar)	uptake (mmol/g)
0.0786616	0.828103
0.262378	1.49926
0.560688	1.99383
1.02185	2.45006
1.48258	2.72895
2.42264	3.0504
