Adsorption isotherm of Nitrogen on ZIF-8
DOI: 10.1039/C4ee01009d
Adsorbate Nitrogen: InChIKey IJGRMHOSHXDMSA-UHFFFAOYSA-N
Temperature: 77 K
Tabular data in the source: 0
pressure (bar)	uptake (cm3(STP)/g)
0	129.412
0.00769013	152.964
0.0230704	161.835
0.0333239	167.748
0.0487041	173.677
0.074338	173.754
0.0974085	176.765
0.146113	182.795
0.192253	182.935
0.243521	186.031
0.294788	189.128
0.340929	192.209
0.384506	195.282
0.438337	195.445
0.489605	201.482
0.535746	201.622
0.581887	204.703
0.630591	204.85
0.681858	210.888
0.730563	211.035
0.779267	211.183
0.825407	223.087
0.874112	234.999
0.922816	288.088
0.951013	479.35
0.966393	491.161
