Adsorption isotherm of Nitrogen on ZIF-8
DOI: 10.1039/C4ee01009d
Adsorbate Nitrogen: InChIKey IJGRMHOSHXDMSA-UHFFFAOYSA-N
Temperature: 77 K
Tabular data in the source: 0
pressure (bar)	uptake (cm3(STP)/g)
0.00769013	297.082
0.0281971	350.085
0.0512675	364.861
0.074338	370.813
0.0948449	370.875
0.146113	376.913
0.192253	377.053
0.243521	380.149
0.294788	383.245
0.338366	386.318
0.38707	395.289
0.438337	398.386
0.481915	401.459
0.533183	404.555
0.58445	407.652
0.635718	413.689
0.684421	419.719
0.733126	425.749
0.776703	431.763
0.876675	593.831
0.92538	729.272
0.951013	738.173
0.968956	738.228
