Adsorption isotherm of Nitrogen on ZIF-8
DOI: 10.1039/C4ee01009d
Adsorbate Nitrogen: InChIKey IJGRMHOSHXDMSA-UHFFFAOYSA-N
Temperature: 77 K
Tabular data in the source: 0
pressure (bar)	uptake (cm3(STP)/g)
0.00512675	64.7214
0.020507	67.7091
0.0384506	76.587
0.0461408	76.6103
0.0692112	76.6801
0.0974085	79.7067
0.146113	79.8541
0.192253	82.935
0.240957	86.0236
0.289662	89.1122
0.343493	89.2752
0.38707	92.3483
0.438337	95.4447
0.487041	95.5921
0.535746	98.6807
0.58445	98.8282
0.635718	104.866
0.679295	104.998
0.727999	111.027
0.776703	111.175
0.825407	128.969
0.879238	214.427
0.92538	329.272
0.945886	332.275
0.97152	332.353
