Adsorption isotherm of Nitrogen on ZIF-8
DOI: 10.1039/C4ee01009d
Adsorbate Nitrogen: InChIKey IJGRMHOSHXDMSA-UHFFFAOYSA-N
Temperature: 298 K
Tabular data in the source: 0
pressure (bar)	uptake (mmol/g)
0.10407	0.022384
0.204667	0.0447948
0.305331	0.0517462
0.405995	0.0586976
0.50312	0.0811353
0.603784	0.0880867
0.704382	0.110498
0.801573	0.117476
0.902238	0.124427
0.995924	0.139162
