Adsorption isotherm of Carbon Dioxide on ZIF-8
DOI: 10.1039/C4ee01009d
Adsorbate Carbon Dioxide: InChIKey CURLTUGMZLYLDI-UHFFFAOYSA-N
Temperature: 273 K
Tabular data in the source: 0
pressure (bar)	uptake (mmol/g)
0.173802	0.533161
0.376027	0.928578
0.587837	1.32406
0.895826	1.8581
1.21345	2.41191
2.09874	3.87585
2.49295	4.39076
