Adsorption isotherm of Nitrogen on ZIF-8
DOI: 10.1039/C4ee01009d
Adsorbate Nitrogen: InChIKey IJGRMHOSHXDMSA-UHFFFAOYSA-N
Temperature: 77 K
Tabular data in the source: 0
pressure (bar)	uptake (cm3(STP)/g)
0.00256338	173.537
0.00512675	194.133
0.0102535	205.913
0.0256337	208.901
0.0358873	214.815
0.0487041	220.736
0.074338	223.754
0.0974085	226.765
0.148676	229.862
0.192253	235.876
0.240957	241.906
0.289662	244.995
0.343493	251.04
0.38707	251.172
0.435774	257.202
0.487041	263.239
0.535746	263.387
0.58445	263.534
0.633154	263.682
0.681858	269.711
0.727999	278.675
0.78183	287.661
0.879238	349.721
0.927942	588.103
0.945886	591.099
0.968956	599.992
