Adsorption isotherm of Carbon Dioxide on ZIF-8
DOI: 10.1039/C4ee01009d
Adsorbate Carbon Dioxide: InChIKey CURLTUGMZLYLDI-UHFFFAOYSA-N
Temperature: 298 K
Tabular data in the source: 0
pressure (bar)	uptake (mmol/g)
0.102895	0.292924
0.154444	0.416198
0.20262	0.516308
0.250864	0.60096
0.299108	0.685611
0.354195	0.793398
0.402506	0.862589
0.447345	0.931808
0.499061	1.01643
0.547371	1.08562
0.602593	1.16249
0.647465	1.22398
0.695776	1.29317
0.744087	1.36236
0.795937	1.41607
0.847754	1.47751
0.903009	1.54664
0.944476	1.5927
0.99282	1.65416
