Adsorption isotherm of Carbon Dioxide on ZIF-8
DOI: 10.1039/C4ee01009d
Adsorbate Carbon Dioxide: InChIKey CURLTUGMZLYLDI-UHFFFAOYSA-N
Temperature: 273 K
Tabular data in the source: 0
pressure (bar)	uptake (mmol/g)
0.126208	0.67078
0.28084	1.20382
0.454311	1.59904
0.647046	2.03381
0.92628	2.56766
1.2439	3.12147
1.53248	3.55686
2.17656	4.34927
