Adsorption isotherm of Carbon Dioxide on ZIF-8
DOI: 10.1039/C4ee01009d
Adsorbate Carbon Dioxide: InChIKey CURLTUGMZLYLDI-UHFFFAOYSA-N
Temperature: 298 K
Tabular data in the source: 0
pressure (bar)	uptake (mmol/g)
0.0622337	0.0613547
0.0967893	0.099735
0.155618	0.145657
0.203996	0.199389
0.255913	0.237635
0.304358	0.275908
0.352803	0.314181
0.401248	0.352454
0.456604	0.398403
0.498104	0.43673
0.550055	0.467246
0.598467	0.513249
0.650384	0.551495
0.698863	0.582038
0.750713	0.635743
0.799191	0.666286
0.847636	0.704559
0.896081	0.742832
0.951438	0.788781
0.992971	0.819378
