Adsorption isotherm of Nitrogen on ZIF-8
DOI: 10.1039/C4ee01009d
Adsorbate Nitrogen: InChIKey IJGRMHOSHXDMSA-UHFFFAOYSA-N
Temperature: 77 K
Tabular data in the source: 0
pressure (bar)	uptake (cm3(STP)/g)
0.00512675	238.251
0.0102535	255.913
0.0179437	273.584
0.0333239	285.395
0.0461408	291.316
0.0692112	297.268
0.0948449	303.228
0.146113	312.207
0.192253	321.17
0.238394	327.192
0.287099	333.222
0.343493	339.275
0.389633	342.356
0.443464	348.401
0.481915	354.4
0.53831	354.571
0.579323	357.636
0.635718	363.689
0.676732	363.813
0.727999	366.91
0.77414	372.932
0.830534	376.044
0.876675	408.536
0.930506	711.641
0.953576	723.475
