Adsorption isotherm of Carbon Dioxide on ZIF-8
DOI: 10.1039/C4ee01009d
Adsorbate Carbon Dioxide: InChIKey CURLTUGMZLYLDI-UHFFFAOYSA-N
Temperature: 298 K
Tabular data in the source: 0
pressure (bar)	uptake (mmol/g)
0.114185	0.091871
0.162697	0.114684
0.204264	0.137552
0.252709	0.175824
0.30466	0.206341
0.353172	0.229154
0.405056	0.27513
0.450029	0.31343
0.498507	0.343973
0.550491	0.366759
0.602409	0.405006
0.657799	0.443225
0.702771	0.481524
0.75125	0.512068
0.799661	0.55807
0.851646	0.580857
0.896585	0.626886
0.951974	0.665106
0.996947	0.703405
