Adsorption isotherm of Carbon Dioxide on ZIF-8
DOI: 10.1039/C4ee01009d
Adsorbate Carbon Dioxide: InChIKey CURLTUGMZLYLDI-UHFFFAOYSA-N
Temperature: 298 K
Tabular data in the source: 0
pressure (bar)	uptake (mmol/g)
0.0760895	0.0689771
0.103768	0.0919516
0.155685	0.130198
0.204231	0.145281
0.259587	0.19123
0.308099	0.214044
0.353038	0.260073
0.404989	0.290589
0.453467	0.321133
0.501946	0.351676
0.553863	0.389922
0.605814	0.420438
0.657698	0.466414
0.695759	0.497038
0.754655	0.5275
0.803066	0.573503
0.848106	0.596343
0.896585	0.626886
0.948502	0.665132
0.993508	0.695702
