Adsorption isotherm of Nitrogen on ZIF-8
DOI: 10.1039/C4ee01009d
Adsorbate Nitrogen: InChIKey IJGRMHOSHXDMSA-UHFFFAOYSA-N
Temperature: 77 K
Tabular data in the source: 0
pressure (bar)	uptake (cm3(STP)/g)
0	129.412
0.00769013	152.964
0.0230704	161.835
0.0333239	167.748
0.0487041	173.677
0.074338	173.754
0.0974085	176.765
0.146113	182.795
0.192253	182.935
0.243521	186.031
0.294788	189.128
0.340929	192.209
0.384506	195.282
0.438337	195.445
0.489605	201.482
0.535746	201.622
0.581887	204.703
0.630591	204.85
0.681858	210.888
0.735689	211.051
0.78183	214.132
0.874112	264.411
0.920253	491.021
0.951013	488.173
0.968956	488.228
