Adsorption isotherm of Nitrogen on ZIF-8
DOI: 10.1039/C4ee01009d
Adsorbate Nitrogen: InChIKey IJGRMHOSHXDMSA-UHFFFAOYSA-N
Temperature: 77 K
Tabular data in the source: 0
pressure (bar)	uptake (cm3(STP)/g)
0.00512675	238.251
0.0102535	255.913
0.0179437	273.584
0.0333239	285.395
0.0461408	291.316
0.0692112	297.268
0.0948449	303.228
0.146113	312.207
0.192253	315.288
0.240957	327.2
0.287099	327.34
0.338366	333.377
0.389633	336.474
0.435774	339.555
0.487041	342.651
0.540872	345.755
0.587014	354.718
0.633154	354.858
0.679295	354.998
0.733126	361.043
0.78183	364.132
0.830534	373.103
0.871549	384.991
0.927942	429.28
0.94076	664.613
0.963829	717.624
