Adsorption isotherm of Carbon Dioxide on ZIF-8
DOI: 10.1039/C4ee01009d
Adsorbate Carbon Dioxide: InChIKey CURLTUGMZLYLDI-UHFFFAOYSA-N
Temperature: 273 K
Tabular data in the source: 0
pressure (bar)	uptake (mmol/g)
0.117048	0.848059
0.252321	1.30215
0.416396	1.77613
0.580283	2.1713
1.02326	3.0412
1.45614	3.69429
1.90776	4.17017
