Adsorption isotherm of Carbon Dioxide on ZIF-8
DOI: 10.1039/C4ee01009d
Adsorbate Carbon Dioxide: InChIKey CURLTUGMZLYLDI-UHFFFAOYSA-N
Temperature: 298 K
Tabular data in the source: 0
pressure (bar)	uptake (mmol/g)
0.0101822	0.0540276
0.0512799	0.185111
0.0993894	0.300681
0.150971	0.416224
0.199081	0.531795
0.25073	0.631878
0.302446	0.716503
0.343711	0.808937
0.398933	0.885805
0.450616	0.978159
0.495387	1.06284
0.543664	1.13976
0.59538	1.22438
0.643658	1.30131
0.698879	1.37817
0.743718	1.44739
0.792029	1.51658
0.843845	1.57802
0.892156	1.64721
0.940501	1.70867
0.988811	1.77786
