Adsorption isotherm of Nitrogen on ZIF-8
DOI: 10.1039/C4ee01009d
Adsorbate Nitrogen: InChIKey IJGRMHOSHXDMSA-UHFFFAOYSA-N
Temperature: 77 K
Tabular data in the source: 0
pressure (bar)	uptake (cm3(STP)/g)
0.00769013	297.082
0.0281971	350.085
0.0512675	364.861
0.074338	370.813
0.0948449	370.875
0.146113	376.913
0.192253	377.053
0.243521	380.149
0.294788	383.245
0.338366	386.318
0.38707	392.348
0.435774	395.437
0.484479	398.526
0.535746	398.681
0.581887	401.762
0.633154	404.858
0.679295	410.88
0.730563	416.918
0.776703	417.057
0.827971	431.918
0.879238	467.368
0.951013	735.232
0.97152	738.235
