Adsorption isotherm of Nitrogen on ZIF-8
DOI: 10.1039/C4ee01009d
Adsorbate Nitrogen: InChIKey IJGRMHOSHXDMSA-UHFFFAOYSA-N
Temperature: 77 K
Tabular data in the source: 0
pressure (bar)	uptake (cm3(STP)/g)
0.00512675	58.8391
0.0230704	58.8934
0.0487041	64.8533
0.074338	64.9309
0.0974085	65.0008
0.148676	68.0972
0.194817	71.178
0.246084	74.2744
0.294788	74.4219
0.343493	77.5105
0.392197	80.5991
0.443464	80.7543
0.487041	83.8274
0.53831	89.865
0.58445	90.0047
0.635718	90.1599
0.681858	93.2407
0.730563	96.3293
0.779267	99.418
0.830534	111.338
0.874112	129.117
0.922816	232.205
0.968956	335.286
