Adsorption isotherm of Nitrogen, Water on Activated Nanoporous Carbon BAM-P109
DOI: 10.1007/s10450-023-00383-1
Article source: Figure 3
Adsorbate Nitrogen: InChIKey IJGRMHOSHXDMSA-UHFFFAOYSA-N
Adsorbate Water: InChIKey XLYOFNOQVPJJNP-UHFFFAOYSA-N
Kind: experiment
Isotherm type: excess
Temperature: 298 K
Tabular data in the source: 0
pressure (bar)	Nitrogen fraction	Nitrogen uptake (mmol/g)	Water fraction	Water uptake (mmol/g)	total uptake (mmol/g)
1.01325			0.95	23.1	
1.01325			0.9	22.716	
1.01325			0.85	22.334	
1.01325			0.8	22.033	
1.01325			0.75	21.774	
1.01325			0.7	21.52	
1.01325			0.65	21.232	
1.01325			0.6	20.819	
1.01325			0.55	19.116	
1.01325			0.5	5.823	
1.01325			0.45	2.137	
1.01325			0.4	1.213	
1.01325			0.35	0.756	
1.01325			0.3	0.493	
1.01325			0.25	0.335	
1.01325			0.2	0.235	
1.01325			0.15	0.162	
1.01325			0.1	0.11	
1.01325			0.051	0.07	
