Adsorption isotherm of Water on Activated Nanoporous Carbon BAM-P109
DOI: 10.1007/s10450-023-00383-1
Article source: Figure 1
Adsorbate Water: InChIKey XLYOFNOQVPJJNP-UHFFFAOYSA-N
Kind: experiment
Isotherm type: excess
Temperature: 298 K
Tabular data in the source: 0
pressure (bar)	uptake (mmol/g)
0.000216	0.009
0.000399	0.014
0.000777	0.023
0.000989	0.028
0.001369	0.035
0.001572	0.04
0.002396	0.057
0.003284	0.077
0.004143	0.097
0.004704	0.111
0.005661	0.138
0.006387	0.161
0.007202	0.191
0.007998	0.227
0.008679	0.263
0.009497	0.318
0.010175	0.374
0.011126	0.479
0.011871	0.596
0.012556	0.738
0.013269	0.945
0.013336	0.972
0.014049	1.245
0.014911	1.738
0.015599	2.257
0.016347	2.988
0.017247	4.53
0.018018	7.226
0.018829	10.867
0.019568	14.033
0.020411	17.352
0.021308	19.629
0.022056	20.418
0.023166	21.553
0.023549	21.709
0.024361	22.098
0.025087	22.344
0.02599	22.583
0.026849	22.762
0.027451	22.868
0.028301	22.999
0.029116	23.112
0.029886	23.232
