Adsorption isotherm of Nitrogen, Water on Activated Nanoporous Carbon BAM-P109
DOI: 10.1007/s10450-023-00383-1
Article source: Table 3 / Figure 4
Adsorbate Nitrogen: InChIKey IJGRMHOSHXDMSA-UHFFFAOYSA-N
Adsorbate Water: InChIKey XLYOFNOQVPJJNP-UHFFFAOYSA-N
Kind: experiment
Isotherm type: excess
Temperature: 298 K
Tabular data in the source: 0
pressure (bar)	Nitrogen fraction	Nitrogen uptake (mmol/g)	Water fraction	Water uptake (mmol/g)	total uptake (mmol/g)
1.01325			0.95	22.475	
1.01325			0.9	22.22	
1.01325			0.85	21.944	
1.01325			0.8	21.696	
1.01325			0.75	21.461	
1.01325			0.7	21.194	
1.01325			0.65	20.884	
1.01325			0.6	20.419	
1.01325			0.55	15.667	
1.01325			0.5	5.244	
1.01325			0.45	1.683	
1.01325			0.4	0.958	
1.01325			0.35	0.609	
1.01325			0.3	0.409	
1.01325			0.25	0.288	
1.01325			0.2	0.21	
1.01325			0.15	0.154	
1.01325			0.1	0.111	
1.01325			0.05	0.074	
