Adsorption isotherm of Nitrogen, Water on Activated Nanoporous Carbon BAM-P109
DOI: 10.1007/s10450-023-00383-1
Article source: Figure 3
Adsorbate Nitrogen: InChIKey IJGRMHOSHXDMSA-UHFFFAOYSA-N
Adsorbate Water: InChIKey XLYOFNOQVPJJNP-UHFFFAOYSA-N
Kind: experiment
Isotherm type: excess
Temperature: 298 K
Tabular data in the source: 0
pressure (bar)	Nitrogen fraction	Nitrogen uptake (mmol/g)	Water fraction	Water uptake (mmol/g)	total uptake (mmol/g)
1.01325			0	0.0458	
1.01325			0.05	0.0976	
1.01325			0.1	0.1357	
1.01325			0.15	0.1807	
1.01325			0.2	0.2379	
1.01325			0.25	0.3154	
1.01325			0.3	0.4255	
1.01325			0.35	0.6118	
1.01325			0.4	0.9302	
1.01325			0.45	1.6182	
1.01325			0.5	9.2243	
1.01325			0.55	17.6075	
1.01325			0.6	20.3025	
1.01325			0.65	20.7145	
1.01325			0.7	21.0084	
1.01325			0.75	21.2642	
1.01325			0.8	21.5059	
1.01325			0.85	21.7492	
1.01325			0.9	22.0037	
1.01325			0.95	22.2363	
