Adsorption isotherm of Water on Activated Nanoporous Carbon BAM-P109
DOI: 10.1007/s10450-023-00383-1
Article source: Figure 1
Adsorbate Water: InChIKey XLYOFNOQVPJJNP-UHFFFAOYSA-N
Kind: experiment
Isotherm type: excess
Temperature: 298 K
Tabular data in the source: 0
pressure (bar)	uptake (mmol/g)
0	2.3e-05
0.001585	0.045628
0.003169	0.076941
0.004753	0.107228
0.006339	0.144145
0.007924	0.19393
0.009509	0.266201
0.011092	0.38389
0.01268	0.607382
0.01415	0.959771
0.015849	1.81827
0.017084	3.55743
0.018722	8.04398
0.02029	14.2621
0.022103	19.0524
0.0236	21.4137
0.025089	22.5913
0.026937	23.1386
0.028339	23.4134
0.030081	23.664
