Adsorption isotherm of Water on Activated Nanoporous Carbon BAM-P109
DOI: 10.1007/s10450-023-00383-1
Article source: Figure 1
Adsorbate Water: InChIKey XLYOFNOQVPJJNP-UHFFFAOYSA-N
Kind: experiment
Isotherm type: excess
Temperature: 298 K
Tabular data in the source: 0
pressure (bar)	uptake (mmol/g)
0.030843	23.535
0.028225	23.157
0.026538	22.885
0.024129	22.492
0.022399	22.201
0.021746	22.063
0.01927	21.547
0.01772	18.965
0.017457	16.365
0.017178	13.71
0.017003	11.1
0.016797	8.4415
0.016334	5.849
0.015288	3.5516
0.014192	1.9636
0.012651	1.22
0.010885	0.86994
0.009183	0.69951
0.007649	0.60873
0.005883	0.53971
0.004115	0.49292
0.00277	0.46225
0.001212	0.43097
