Adsorption isotherm of Water on Activated Nanoporous Carbon BAM-P109
DOI: 10.1007/s10450-023-00383-1
Article source: Figure 1
Adsorbate Water: InChIKey XLYOFNOQVPJJNP-UHFFFAOYSA-N
Kind: experiment
Isotherm type: excess
Temperature: 298 K
Tabular data in the source: 0
pressure (bar)	uptake (mmol/g)
0.002086	0.055691
0.003519	0.085268
0.004974	0.11838
0.006375	0.15561
0.008036	0.2135
0.009589	0.29426
0.011345	0.457
0.012911	0.78577
0.014563	1.5329
0.016664	3.935
0.01811	9.1339
0.01952	15.626
0.021045	20.157
0.022861	21.912
0.024449	22.462
0.02729	22.993
0.028919	23.247
0.030342	23.591
