Adsorption isotherm of Helium, Water on Activated Nanoporous Carbon BAM-P109
DOI: 10.1007/s10450-023-00383-1
Article source: Figure S11
Adsorbate Helium: InChIKey SWQJXJOGLNCZEY-UHFFFAOYSA-N
Adsorbate Water: InChIKey XLYOFNOQVPJJNP-UHFFFAOYSA-N
Kind: experiment
Isotherm type: excess
Temperature: 298 K
Tabular data in the source: 0
pressure (bar)	Helium fraction	Helium uptake (mmol/g)	Water fraction	Water uptake (mmol/g)	total uptake (mmol/g)
1.01325			0.9491	23.2858	
1.01325			0.9001	23.1115	
1.01325			0.8421	22.8846	
1.01325			0.8003	22.6557	
1.01325			0.7493	22.4138	
1.01325			0.7	22.2268	
1.01325			0.6497	21.9306	
1.01325			0.6003	21.4118	
1.01325			0.5496	16.2058	
1.01325			0.4978	3.5227	
1.01325			0.4503	1.7105	
1.01325			0.4	1.0241	
1.01325			0.3513	0.6889	
1.01325			0.2998	0.48	
1.01325			0.2496	0.359	
1.01325			0.2001	0.2811	
1.01325			0.1508	0.2216	
1.01325			0.0999	0.2059	
