Adsorption isotherm of Nitrogen, Water on Activated Nanoporous Carbon BAM-P109
DOI: 10.1007/s10450-023-00383-1
Article source: Figure 3
Adsorbate Nitrogen: InChIKey IJGRMHOSHXDMSA-UHFFFAOYSA-N
Adsorbate Water: InChIKey XLYOFNOQVPJJNP-UHFFFAOYSA-N
Kind: experiment
Isotherm type: excess
Temperature: 298 K
Tabular data in the source: 0
pressure (bar)	Nitrogen fraction	Nitrogen uptake (mmol/g)	Water fraction	Water uptake (mmol/g)	total uptake (mmol/g)
1.01325			0.0004	0	
1.01325			0.0503	0.0319	
1.01325			0.1004	0.0797	
1.01325			0.15	0.1029	
1.01325			0.1996	0.1452	
1.01325			0.2491	0.1974	
1.01325			0.3002	0.2731	
1.01325			0.3495	0.395	
1.01325			0.3983	0.6214	
1.01325			0.4501	1.1029	
1.01325			0.5	2.0148	
1.01325			0.55	3.9046	
1.01325			0.5984	9.7991	
1.01325			0.647	16.1143	
1.01325			0.7068	19.4798	
1.01325			0.75	20.8142	
1.01325			0.7947	21.4318	
1.01325			0.8453	21.6584	
1.01325			0.8961	21.8511	
1.01325			0.9508	22.0613	
