Adsorption isotherm of Nitrogen, Water on Activated Nanoporous Carbon BAM-P109
DOI: 10.1007/s10450-023-00383-1
Article source: Figure 3
Adsorbate Nitrogen: InChIKey IJGRMHOSHXDMSA-UHFFFAOYSA-N
Adsorbate Water: InChIKey XLYOFNOQVPJJNP-UHFFFAOYSA-N
Kind: experiment
Isotherm type: excess
Temperature: 298 K
Tabular data in the source: 0
pressure (bar)	Nitrogen fraction	Nitrogen uptake (mmol/g)	Water fraction	Water uptake (mmol/g)	total uptake (mmol/g)
1.01325			0	0.0001	
1.01325			0.05	0.0329	
1.01325			0.1	0.0604	
1.01325			0.15	0.0922	
1.01325			0.2	0.1316	
1.01325			0.25	0.1822	
1.01325			0.3	0.2593	
1.01325			0.35	0.3889	
1.01325			0.4	0.6327	
1.01325			0.45	1.1496	
1.01325			0.5	2.2336	
1.01325			0.55	4.7398	
1.01325			0.6	10.9942	
1.01325			0.65	16.6872	
1.01325			0.7	20.0708	
1.01325			0.75	21.5759	
1.01325			0.8	22.1543	
1.01325			0.85	22.4675	
1.01325			0.9	22.6973	
1.01325			0.95	22.9788	
