Adsorption isotherm of Helium, Water on Activated Nanoporous Carbon BAM-P109
DOI: 10.1007/s10450-023-00383-1
Article source: Figure S11
Adsorbate Helium: InChIKey SWQJXJOGLNCZEY-UHFFFAOYSA-N
Adsorbate Water: InChIKey XLYOFNOQVPJJNP-UHFFFAOYSA-N
Kind: experiment
Isotherm type: excess
Temperature: 298 K
Tabular data in the source: 0
pressure (bar)	Helium fraction	Helium uptake (mmol/g)	Water fraction	Water uptake (mmol/g)	total uptake (mmol/g)
1.01325			0.0734	0	
1.01325			0.0998	0.0925	
1.01325			0.1497	0.1197	
1.01325			0.2011	0.1559	
1.01325			0.2487	0.2153	
1.01325			0.3005	0.2988	
1.01325			0.3482	0.433	
1.01325			0.3988	0.6792	
1.01325			0.4478	1.2192	
1.01325			0.5	2.4172	
1.01325			0.5501	5.2604	
1.01325			0.598	11.8602	
1.01325			0.6501	17.958	
1.01325			0.6955	21.0148	
1.01325			0.7501	22.1424	
1.01325			0.7987	22.5466	
1.01325			0.8572	22.812	
1.01325			0.9002	23.0319	
1.01325			0.9491	23.2858	
