Adsorption isotherm of Nitrogen, Water on Activated Nanoporous Carbon BAM-P109
DOI: 10.1007/s10450-023-00383-1
Article source: Figure 3
Adsorbate Nitrogen: InChIKey IJGRMHOSHXDMSA-UHFFFAOYSA-N
Adsorbate Water: InChIKey XLYOFNOQVPJJNP-UHFFFAOYSA-N
Kind: experiment
Isotherm type: excess
Temperature: 298 K
Tabular data in the source: 0
pressure (bar)	Nitrogen fraction	Nitrogen uptake (mmol/g)	Water fraction	Water uptake (mmol/g)	total uptake (mmol/g)
1.01325			0.9508	22.0613	
1.01325			0.8979	21.9003	
1.01325			0.8494	21.6765	
1.01325			0.798	21.4628	
1.01325			0.75	21.2944	
1.01325			0.7002	20.968	
1.01325			0.6524	20.6157	
1.01325			0.5996	20.1506	
1.01325			0.549	14.6008	
1.01325			0.5001	3.2518	
1.01325			0.4429	1.5158	
1.01325			0.3982	0.8597	
1.01325			0.3514	0.5512	
1.01325			0.2998	0.3651	
1.01325			0.2504	0.2509	
1.01325			0.1999	0.1812	
1.01325			0.1498	0.1405	
1.01325			0.1002	0.1	
1.01325			0.0495	0.077	
1.01325			0.0246	0.0573	
