Adsorption isotherm of Water on Activated Nanoporous Carbon BAM-P109
DOI: 10.1007/s10450-023-00383-1
Article source: Figure 1
Adsorbate Water: InChIKey XLYOFNOQVPJJNP-UHFFFAOYSA-N
Kind: experiment
Isotherm type: excess
Temperature: 298 K
Tabular data in the source: 0
pressure (bar)	uptake (mmol/g)
0.028634	23.152
0.026935	22.993
0.025385	22.798
0.023863	22.581
0.022351	22.347
0.02082	22.077
0.0192	21.705
0.017542	20.528
0.016192	9.386
0.014439	2.927
0.012714	1.588
0.011145	1.086
0.009608	0.807
0.007887	0.631
0.006023	0.514
0.004882	0.462
0.003113	0.405
0.001442	0.362
