Adsorption isotherm of Nitrogen, Water on Activated Nanoporous Carbon BAM-P109
DOI: 10.1007/s10450-023-00383-1
Article source: Table 3 / Figure 4
Adsorbate Nitrogen: InChIKey IJGRMHOSHXDMSA-UHFFFAOYSA-N
Adsorbate Water: InChIKey XLYOFNOQVPJJNP-UHFFFAOYSA-N
Kind: experiment
Isotherm type: excess
Temperature: 298 K
Tabular data in the source: 0
pressure (bar)	Nitrogen fraction	Nitrogen uptake (mmol/g)	Water fraction	Water uptake (mmol/g)	total uptake (mmol/g)
1.01325			0.05	0.041	
1.01325			0.1	0.073	
1.01325			0.15	0.107	
1.01325			0.2	0.149	
1.01325			0.25	0.206	
1.01325			0.3	0.289	
1.01325			0.35	0.431	
1.01325			0.4	0.7	
1.01325			0.45	1.252	
1.01325			0.5	2.385	
1.01325			0.55	5.337	
1.01325			0.6	11.233	
1.01325			0.65	16.674	
1.01325			0.7	19.903	
1.01325			0.75	21.106	
1.01325			0.8	21.592	
1.01325			0.85	21.871	
1.01325			0.9	22.095	
1.01325			0.95	22.475	
