Adsorption isotherm of Water on Activated Nanoporous Carbon BAM-P109
DOI: 10.1007/s10450-023-00383-1
Article source: Figure 1
Adsorbate Water: InChIKey XLYOFNOQVPJJNP-UHFFFAOYSA-N
Kind: experiment
Isotherm type: excess
Temperature: 298 K
Tabular data in the source: 0
pressure (bar)	uptake (mmol/g)
0.001545	0.029146
0.003205	0.05558
0.004813	0.08434
0.006209	0.113944
0.008193	0.171072
0.009591	0.231096
0.010925	0.318283
0.012491	0.496599
0.013868	0.820456
0.015464	1.67512
0.01696	3.30483
0.018475	7.89223
0.02005	14.4731
0.021541	18.5545
0.023202	20.8317
0.024752	21.6332
0.027178	22.1461
