Adsorption isotherm of Nitrogen, Water on Activated Nanoporous Carbon BAM-P109
DOI: 10.1007/s10450-023-00383-1
Article source: Figure 3
Adsorbate Nitrogen: InChIKey IJGRMHOSHXDMSA-UHFFFAOYSA-N
Adsorbate Water: InChIKey XLYOFNOQVPJJNP-UHFFFAOYSA-N
Kind: experiment
Isotherm type: excess
Temperature: 298 K
Tabular data in the source: 0
pressure (bar)	Nitrogen fraction	Nitrogen uptake (mmol/g)	Water fraction	Water uptake (mmol/g)	total uptake (mmol/g)
1.01325			0.95	23.054	
1.01325			0.9	22.604	
1.01325			0.85	22.243	
1.01325			0.8	21.931	
1.01325			0.75	21.669	
1.01325			0.7	21.414	
1.01325			0.65	21.127	
1.01325			0.6	20.746	
1.01325			0.55	19.178	
1.01325			0.5	5.217	
1.01325			0.45	2.128	
1.01325			0.4	1.224	
1.01325			0.35	0.764	
1.01325			0.3	0.494	
1.01325			0.25	0.331	
1.01325			0.2	0.224	
1.01325			0.15	0.145	
1.01325			0.1	0.091	
1.01325			0.051	0.04	
