Adsorption isotherm of Water on Activated Nanoporous Carbon BAM-P109
DOI: 10.1007/s10450-023-00383-1
Article source: Figure 1
Adsorbate Water: InChIKey XLYOFNOQVPJJNP-UHFFFAOYSA-N
Kind: experiment
Isotherm type: excess
Temperature: 298 K
Tabular data in the source: 0
pressure (bar)	uptake (mmol/g)
0.00025	0.009
0.000441	0.012
0.000783	0.019
0.000995	0.023
0.001452	0.032
0.002549	0.052
0.003122	0.064
0.004146	0.084
0.004961	0.103
0.00549	0.115
0.006416	0.14
0.007329	0.169
0.008052	0.197
0.008705	0.227
0.009535	0.272
0.01028	0.324
0.01112	0.402
0.011808	0.487
0.01255	0.612
0.013234	0.781
0.013314	0.804
0.014106	1.077
0.014841	1.463
0.01565	2.063
0.016712	3.192
0.017304	4.218
0.01791	6.137
0.018715	9.891
0.019653	14.326
0.020433	17.078
0.021169	19.063
0.022132	20.669
0.022671	21.123
0.023701	21.909
0.024256	22.124
0.02514	22.437
0.026827	22.848
0.027955	23.028
0.028345	23.082
0.029058	23.189
0.029914	23.304
