Adsorption isotherm of Nitrogen, Water on Activated Nanoporous Carbon BAM-P109
DOI: 10.1007/s10450-023-00383-1
Article source: Figure 3
Adsorbate Nitrogen: InChIKey IJGRMHOSHXDMSA-UHFFFAOYSA-N
Adsorbate Water: InChIKey XLYOFNOQVPJJNP-UHFFFAOYSA-N
Kind: experiment
Isotherm type: excess
Temperature: 298 K
Tabular data in the source: 0
pressure (bar)	Nitrogen fraction	Nitrogen uptake (mmol/g)	Water fraction	Water uptake (mmol/g)	total uptake (mmol/g)
1.01325			0.95	21.9814	
1.01325			0.9	21.7702	
1.01325			0.85	21.5529	
1.01325			0.8	21.3329	
1.01325			0.75	21.1021	
1.01325			0.7	20.8481	
1.01325			0.65	20.5491	
1.01325			0.6	19.9635	
1.01325			0.55	11.4723	
1.01325			0.5	3.1891	
1.01325			0.45	1.5468	
1.01325			0.4	0.8716	
1.01325			0.35	0.5449	
1.01325			0.3	0.365	
1.01325			0.25	0.2577	
1.01325			0.2	0.1893	
1.01325			0.15	0.1405	
1.01325			0.1	0.1019	
1.01325			0.05	0.0674	
1.01325			0	0.0217	
