Adsorption isotherm of Water on Activated Nanoporous Carbon BAM-P109
DOI: 10.1007/s10450-023-00383-1
Article source: Figure 1
Adsorbate Water: InChIKey XLYOFNOQVPJJNP-UHFFFAOYSA-N
Kind: experiment
Isotherm type: excess
Temperature: 298 K
Tabular data in the source: 0
pressure (bar)	uptake (mmol/g)
0.001548	0.030448
0.003119	0.057198
0.004766	0.087716
0.006163	0.119079
0.008121	0.179982
0.009558	0.245135
0.010885	0.336685
0.012318	0.501708
0.013859	0.856506
0.01559	1.78161
0.016961	3.29911
0.018522	8.24103
0.020027	14.2811
0.021543	18.863
0.023262	20.911
0.025049	21.6994
0.026275	21.9674
