Adsorption isotherm of Water on Activated Nanoporous Carbon BAM-P109
DOI: 10.1007/s10450-023-00383-1
Article source: Figure 1
Adsorbate Water: InChIKey XLYOFNOQVPJJNP-UHFFFAOYSA-N
Kind: experiment
Isotherm type: excess
Temperature: 298 K
Tabular data in the source: 0
pressure (bar)	uptake (mmol/g)
0.001572	0.04
0.003284	0.077
0.004704	0.111
0.006387	0.161
0.007998	0.227
0.009497	0.318
0.011126	0.479
0.012556	0.738
0.014049	1.245
0.015599	2.257
0.017247	4.53
0.018829	10.867
0.020411	17.352
0.022056	20.418
0.023549	21.709
0.025087	22.344
0.026849	22.762
0.028301	22.999
0.029886	23.232
