Adsorption isotherm of Water on Activated Nanoporous Carbon BAM-P109
DOI: 10.1007/s10450-023-00383-1
Article source: Figure 1
Adsorbate Water: InChIKey XLYOFNOQVPJJNP-UHFFFAOYSA-N
Kind: experiment
Isotherm type: excess
Temperature: 298 K
Tabular data in the source: 0
pressure (bar)	uptake (mmol/g)
0.002075	0.05745
0.003756	0.095108
0.005322	0.13331
0.006708	0.16994
0.00932	0.28735
0.010797	0.40678
0.011748	0.53323
0.013456	0.92533
0.014661	1.5864
0.015859	2.6788
0.01753	5.4011
0.018328	7.984
0.018753	10.73
0.019283	12.756
0.019593	15.309
0.020718	17.972
0.021914	20.656
0.022586	21.3
0.024034	22.154
0.025689	22.586
0.027363	22.853
0.029017	23.12
0.030843	23.535
