Adsorption isotherm of Water on Activated Nanoporous Carbon BAM-P109
DOI: 10.1007/s10450-023-00383-1
Article source: Figure 1
Adsorbate Water: InChIKey XLYOFNOQVPJJNP-UHFFFAOYSA-N
Kind: experiment
Isotherm type: excess
Temperature: 298 K
Tabular data in the source: 0
pressure (bar)	uptake (mmol/g)
0	0
0.001585	0.041
0.00317	0.074
0.004755	0.108
0.006308	0.148
0.007925	0.208
0.00951	0.291
0.011095	0.427
0.01268	0.673
0.014265	1.214
0.015849	2.474
0.017434	5.56
0.019019	11.644
0.020604	17.322
0.022189	20.989
0.023774	22.614
0.025359	23.354
0.026944	23.705
0.028529	23.953
0.030114	24.248
