Adsorption isotherm of Water on Activated Nanoporous Carbon BAM-P109
DOI: 10.1007/s10450-023-00383-1
Article source: Figure 1
Adsorbate Water: InChIKey XLYOFNOQVPJJNP-UHFFFAOYSA-N
Kind: experiment
Isotherm type: excess
Temperature: 298 K
Tabular data in the source: 0
pressure (bar)	uptake (mmol/g)
0.027178	22.1461
0.0256	21.9359
0.024054	21.7222
0.022621	21.4975
0.020923	21.1759
0.019423	20.7516
0.017953	17.5858
0.016322	3.29141
0.014615	0.959199
0.012818	0.248529
0.011118	-0.027395
0.009498	-0.163188
0.008156	-0.236075
0.006172	-0.299695
0.004725	-0.334942
0.003	-0.372156
0.001475	-0.401466
