Adsorption isotherm of Water on Activated Nanoporous Carbon BAM-P109
DOI: 10.1007/s10450-023-00383-1
Article source: Figure 1
Adsorbate Water: InChIKey XLYOFNOQVPJJNP-UHFFFAOYSA-N
Kind: experiment
Isotherm type: excess
Temperature: 298 K
Tabular data in the source: 0
pressure (bar)	uptake (mmol/g)
0.003122	0.064
0.004961	0.103
0.006416	0.14
0.008052	0.197
0.009535	0.272
0.01112	0.402
0.01255	0.612
0.014106	1.077
0.01565	2.063
0.017304	4.218
0.018715	9.891
0.020433	17.078
0.022132	20.669
0.023701	21.909
0.02514	22.437
0.026827	22.848
0.028345	23.082
0.029914	23.304
