Adsorption isotherm of Helium, Water on Activated Nanoporous Carbon BAM-P109
DOI: 10.1007/s10450-023-00383-1
Article source: Figure S11
Adsorbate Helium: InChIKey SWQJXJOGLNCZEY-UHFFFAOYSA-N
Adsorbate Water: InChIKey XLYOFNOQVPJJNP-UHFFFAOYSA-N
Kind: experiment
Isotherm type: excess
Temperature: 298 K
Tabular data in the source: 0
pressure (bar)	Helium fraction	Helium uptake (mmol/g)	Water fraction	Water uptake (mmol/g)	total uptake (mmol/g)
1.01325			0.0649	0	
1.01325			0.1003	0.0517	
1.01325			0.1509	0.092	
1.01325			0.2008	0.1348	
1.01325			0.2485	0.1904	
1.01325			0.2995	0.2702	
1.01325			0.3501	0.4132	
1.01325			0.4018	0.6632	
1.01325			0.4477	1.2017	
1.01325			0.5015	2.4513	
1.01325			0.5501	5.3344	
1.01325			0.6041	11.8261	
1.01325			0.6454	17.6546	
1.01325			0.702	20.634	
1.01325			0.7463	21.8075	
1.01325			0.7991	22.2417	
1.01325			0.847	22.4823	
1.01325			0.8995	22.7349	
1.01325			0.9485	23.0077	
