Adsorption isotherm of Water on Activated Nanoporous Carbon BAM-P109
DOI: 10.1007/s10450-023-00383-1
Article source: Figure 1
Adsorbate Water: InChIKey XLYOFNOQVPJJNP-UHFFFAOYSA-N
Kind: experiment
Isotherm type: excess
Temperature: 298 K
Tabular data in the source: 0
pressure (bar)	uptake (mmol/g)
0.030564	23.599
0.028929	23.35
0.027502	23.102
0.025372	22.733
0.02276	22.329
0.021901	22.141
0.019913	21.785
0.018068	20.628
0.017587	18.106
0.017276	15.477
0.017155	12.907
0.016781	10.234
0.016328	7.6324
0.016182	5.1015
0.01538	3.613
0.014112	2.0932
0.012499	1.4255
0.01048	1.0573
0.008857	0.9129
0.007814	0.8538
0.005481	0.7673
0.004336	0.738
0.002558	0.7005
0.001512	0.68
