Adsorption isotherm of Water on Activated Nanoporous Carbon BAM-P109
DOI: 10.1007/s10450-023-00383-1
Article source: Figure 1
Adsorbate Water: InChIKey XLYOFNOQVPJJNP-UHFFFAOYSA-N
Kind: experiment
Isotherm type: excess
Temperature: 298 K
Tabular data in the source: 0
pressure (bar)	uptake (mmol/g)
0.028016	23.208
0.026348	22.937
0.024624	22.673
0.022712	22.378
0.021093	22.105
0.019859	21.848
0.018319	21.245
0.016839	12.825
0.015345	3.5455
0.013742	1.5886
0.011992	0.89711
0.010749	0.69317
0.00893	0.52358
0.007655	0.45034
0.005956	0.38311
0.004444	0.33829
0.002791	0.29766
