Adsorption isotherm of Water on Activated Nanoporous Carbon BAM-P109
DOI: 10.1007/s10450-023-00383-1
Article source: Figure 1
Adsorbate Water: InChIKey XLYOFNOQVPJJNP-UHFFFAOYSA-N
Kind: experiment
Isotherm type: excess
Temperature: 298 K
Tabular data in the source: 0
pressure (bar)	uptake (mmol/g)
0.028168	23.235
0.026561	22.975
0.02483	22.711
0.022801	22.398
0.021105	22.109
0.019831	21.838
0.018338	21.329
0.016889	13.713
0.015701	4.3973
0.013852	1.6846
0.012033	0.89292
0.010717	0.67881
0.008758	0.50373
0.00757	0.43552
0.006188	0.38132
0.00452	0.33115
0.002815	0.2885
