Adsorption isotherm of Nitrogen, Water on Activated Nanoporous Carbon BAM-P109
DOI: 10.1007/s10450-023-00383-1
Article source: Figure 3
Adsorbate Nitrogen: InChIKey IJGRMHOSHXDMSA-UHFFFAOYSA-N
Adsorbate Water: InChIKey XLYOFNOQVPJJNP-UHFFFAOYSA-N
Kind: experiment
Isotherm type: excess
Temperature: 298 K
Tabular data in the source: 0
pressure (bar)	Nitrogen fraction	Nitrogen uptake (mmol/g)	Water fraction	Water uptake (mmol/g)	total uptake (mmol/g)
1.01325			0.95	22.9788	
1.01325			0.9	22.7544	
1.01325			0.85	22.5226	
1.01325			0.8	22.2875	
1.01325			0.75	22.0438	
1.01325			0.7	21.7777	
1.01325			0.65	21.4602	
1.01325			0.6	20.9017	
1.01325			0.55	11.3032	
1.01325			0.5	3.0699	
1.01325			0.45	1.4785	
1.01325			0.4	0.8359	
1.01325			0.35	0.5232	
1.01325			0.3	0.3478	
1.01325			0.25	0.2445	
1.01325			0.2	0.1775	
1.01325			0.15	0.1287	
1.01325			0.1	0.0923	
1.01325			0.05	0.059	
1.01325			0	0.0132	
