Adsorption isotherm of Water on Activated Nanoporous Carbon BAM-P109
DOI: 10.1007/s10450-023-00383-1
Article source: Figure 1
Adsorbate Water: InChIKey XLYOFNOQVPJJNP-UHFFFAOYSA-N
Kind: experiment
Isotherm type: excess
Temperature: 298 K
Tabular data in the source: 0
pressure (bar)	uptake (mmol/g)
0.026275	21.9674
0.026015	21.9403
0.024372	21.7192
0.022838	21.4806
0.021064	21.1598
0.01947	20.7285
0.01794	18.0483
0.016291	3.31647
0.014681	1.00188
0.013047	0.279708
0.010943	-0.082519
0.009587	-0.199582
0.007594	-0.304652
0.006192	-0.34861
0.004773	-0.384621
0.00298	-0.423704
0.001472	-0.453322
