Adsorption isotherm of Water on Activated Nanoporous Carbon BAM-P109
DOI: 10.1007/s10450-023-00383-1
Article source: Figure 1
Adsorbate Water: InChIKey XLYOFNOQVPJJNP-UHFFFAOYSA-N
Kind: experiment
Isotherm type: excess
Temperature: 298 K
Tabular data in the source: 0
pressure (bar)	uptake (mmol/g)
0.002033	0.055263
0.003496	0.085513
0.005018	0.12022
0.006384	0.15688
0.008039	0.21448
0.009573	0.29473
0.011307	0.45616
0.012917	0.7825
0.014524	1.5228
0.01662	3.8033
0.017989	8.7315
0.019473	15.332
0.021102	20.057
0.022773	21.725
0.024773	22.535
0.026164	22.806
0.027886	23.07
0.028776	23.208
0.030475	23.63
