Adsorption isotherm of Water on Activated Nanoporous Carbon BAM-P109
DOI: 10.1007/s10450-023-00383-1
Article source: Figure 1
Adsorbate Water: InChIKey XLYOFNOQVPJJNP-UHFFFAOYSA-N
Kind: experiment
Isotherm type: excess
Temperature: 298 K
Tabular data in the source: 0
pressure (bar)	uptake (mmol/g)
0.02942	23.204
0.028634	23.152
0.027616	23.066
0.026935	22.993
0.02606	22.887
0.025385	22.798
0.024453	22.667
0.023863	22.581
0.023166	22.476
0.022351	22.347
0.021635	22.226
0.02082	22.077
0.02005	21.917
0.0192	21.705
0.018335	21.357
0.017542	20.528
0.016972	17.614
0.016192	9.386
0.016119	8.821
0.015323	4.575
0.014439	2.927
0.013466	2.01
0.012714	1.588
0.012071	1.342
0.011145	1.086
0.010426	0.936
0.009608	0.807
0.008841	0.717
0.007887	0.631
0.007167	0.579
0.006023	0.514
0.0055	0.487
0.004882	0.462
0.003623	0.42
0.003113	0.405
0.0024	0.386
0.001442	0.362
