Adsorption isotherm of Water on Activated Nanoporous Carbon BAM-P109
DOI: 10.1007/s10450-023-00383-1
Article source: Figure 1
Adsorbate Water: InChIKey XLYOFNOQVPJJNP-UHFFFAOYSA-N
Kind: experiment
Isotherm type: excess
Temperature: 298 K
Tabular data in the source: 0
pressure (bar)	uptake (mmol/g)
0	5.4e-05
0.001585	0.071636
0.003168	0.118686
0.004755	0.162147
0.006339	0.21344
0.007925	0.268975
0.009507	0.347139
0.011093	0.474718
0.012679	0.703606
0.014299	1.01792
0.015893	1.82106
0.0174	3.25267
0.018529	7.50346
0.020281	13.7749
0.022208	18.7034
0.0236	21.1693
0.025221	22.4334
0.026718	22.9726
0.028374	23.2596
0.029731	23.4861
