Adsorption isotherm of Water on Activated Nanoporous Carbon BAM-P109
DOI: 10.1007/s10450-023-00383-1
Article source: Figure 1
Adsorbate Water: InChIKey XLYOFNOQVPJJNP-UHFFFAOYSA-N
Kind: experiment
Isotherm type: excess
Temperature: 298 K
Tabular data in the source: 0
pressure (bar)	uptake (mmol/g)
0.030114	23.929
0.023774	23.034
0.020604	22.454
0.017434	16.07
0.015849	3.804
0.014265	1.736
0.01268	1.036
0.00951	0.618
0.007925	0.535
0.00634	0.472
0.004755	0.422
0.00317	0.382
0.001585	0.348
