Adsorption isotherm of Water on Activated Nanoporous Carbon BAM-P109
DOI: 10.1007/s10450-023-00383-1
Article source: Figure 1
Adsorbate Water: InChIKey XLYOFNOQVPJJNP-UHFFFAOYSA-N
Kind: experiment
Isotherm type: excess
Temperature: 298 K
Tabular data in the source: 0
pressure (bar)	uptake (mmol/g)
0.002209	0.0567
0.003791	0.0911
0.005246	0.1265
0.006616	0.166
0.009139	0.2778
0.010578	0.3902
0.011586	0.5134
0.012784	0.776
0.014227	1.3067
0.015992	2.6753
0.017333	5.3503
0.017485	6.002
0.01817	8.5312
0.01863	11.181
0.019095	12.472
0.019511	14.96
0.020313	17.564
0.02075	18.41
0.02224	20.986
0.024202	22.262
0.025714	22.681
0.027302	22.934
0.028884	23.193
0.030564	23.599
