Adsorption isotherm of Water on Activated Nanoporous Carbon BAM-P109
DOI: 10.1007/s10450-023-00383-1
Article source: Figure 1
Adsorbate Water: InChIKey XLYOFNOQVPJJNP-UHFFFAOYSA-N
Kind: experiment
Isotherm type: excess
Temperature: 298 K
Tabular data in the source: 0
pressure (bar)	uptake (mmol/g)
0	-0.001
0.001585	0.024
0.00317	0.054
0.004755	0.088
0.006308	0.128
0.007925	0.198
0.00951	0.282
0.011095	0.41
0.01268	0.636
0.014265	1.127
0.015849	2.251
0.017434	4.935
0.019019	11.311
0.020604	17.37
0.022189	20.966
0.023774	22.487
0.025359	23.125
0.026944	23.42
0.028529	23.652
0.030114	23.929
