Adsorption isotherm of Water on Activated Nanoporous Carbon BAM-P109
DOI: 10.1007/s10450-023-00383-1
Article source: Table 2 / Figure 2
Adsorbate Water: InChIKey XLYOFNOQVPJJNP-UHFFFAOYSA-N
Kind: experiment
Isotherm type: excess
Temperature: 298 K
Tabular data in the source: 0
pressure (bar)	uptake (mmol/g)
0.03011	23.622
0.02853	23.295
0.02694	23.024
0.02536	22.754
0.02377	22.483
0.02219	22.213
0.0206	21.978
0.01902	21.217
0.01743	15.31
0.01585	4.685
0.01426	1.804
0.01268	1.027
0.01109	0.702
0.00951	0.56
0.00792	0.479
0.00634	0.418
0.00475	0.38
0.00317	0.351
0.00158	0.338
