Adsorption isotherm of Water on Activated Nanoporous Carbon BAM-P109
DOI: 10.1007/s10450-023-00383-1
Article source: Figure 1
Adsorbate Water: InChIKey XLYOFNOQVPJJNP-UHFFFAOYSA-N
Kind: experiment
Isotherm type: excess
Temperature: 298 K
Tabular data in the source: 0
pressure (bar)	uptake (mmol/g)
0.029553	23.289
0.028504	23.225
0.027664	23.156
0.026852	23.068
0.026171	22.982
0.025369	22.876
0.024573	22.761
0.023724	22.638
0.022963	22.52
0.022221	22.398
0.021539	22.287
0.020829	22.151
0.020116	22.005
0.019	21.722
0.018506	21.534
0.017609	20.67
0.016937	17.593
0.01622	9.671
0.016141	9.176
0.015307	4.375
0.01455	2.914
0.013612	1.95
0.012841	1.512
0.011954	1.178
0.011006	0.96
0.010058	0.804
0.009557	0.742
0.008876	0.671
0.007801	0.59
0.007056	0.546
0.006242	0.505
0.005636	0.48
0.0046	0.444
0.003947	0.424
0.003255	0.405
0.002488	0.387
0.001449	0.365
