Adsorption isotherm of Water on Activated Nanoporous Carbon BAM-P109
DOI: 10.1007/s10450-023-00383-1
Article source: Figure 1
Adsorbate Water: InChIKey XLYOFNOQVPJJNP-UHFFFAOYSA-N
Kind: experiment
Isotherm type: excess
Temperature: 298 K
Tabular data in the source: 0
pressure (bar)	uptake (mmol/g)
3.6e-05	0.506402
0.001585	0.564658
0.003168	0.603195
0.004753	0.607846
0.006339	0.642794
0.007924	0.700505
0.009508	0.782231
0.011094	0.921152
0.012679	1.16905
0.014194	1.4909
0.015884	2.50381
0.017268	5.20017
0.019064	19.6504
0.020447	21.8995
0.022015	22.2899
0.023819	22.5667
0.025159	22.8259
0.026911	23.0667
0.028225	23.2781
0.029731	23.4861
