Adsorption isotherm of Water on Activated Nanoporous Carbon BAM-P109
DOI: 10.1007/s10450-023-00383-1
Article source: Table 2 / Figure 2
Adsorbate Water: InChIKey XLYOFNOQVPJJNP-UHFFFAOYSA-N
Kind: experiment
Isotherm type: excess
Temperature: 298 K
Tabular data in the source: 0
pressure (bar)	uptake (mmol/g)
0.00158	0.041
0.00317	0.072
0.00475	0.107
0.00634	0.148
0.00792	0.222
0.00951	0.287
0.01109	0.416
0.01268	0.683
0.01426	1.215
0.01585	2.331
0.01743	5.213
0.01902	11.748
0.0206	17.47
0.02219	20.391
0.02377	21.813
0.02536	22.54
0.02694	22.866
0.02853	23.322
0.03011	23.622
