Adsorption isotherm of Water on Activated Nanoporous Carbon BAM-P109
DOI: 10.1007/s10450-023-00383-1
Article source: Figure 1
Adsorbate Water: InChIKey XLYOFNOQVPJJNP-UHFFFAOYSA-N
Kind: experiment
Isotherm type: excess
Temperature: 298 K
Tabular data in the source: 0
pressure (bar)	uptake (mmol/g)
4.2e-05	0.319208
0.001585	0.372121
0.003169	0.413172
0.004754	0.434048
0.006338	0.468654
0.007924	0.524112
0.009508	0.606424
0.011094	0.752134
0.012679	1.00479
0.014255	1.46782
0.015683	2.64025
0.017461	6.79207
0.018757	20.8375
0.020228	22.125
0.021866	22.4801
0.023451	22.7541
0.025299	22.9995
0.026762	23.2431
0.02861	23.4577
0.030081	23.664
