Adsorption isotherm of Nitrogen, Water on Activated Nanoporous Carbon BAM-P109
DOI: 10.1007/s10450-023-00383-1
Article source: Figure 3
Adsorbate Nitrogen: InChIKey IJGRMHOSHXDMSA-UHFFFAOYSA-N
Adsorbate Water: InChIKey XLYOFNOQVPJJNP-UHFFFAOYSA-N
Kind: experiment
Isotherm type: excess
Temperature: 298 K
Tabular data in the source: 0
pressure (bar)	Nitrogen fraction	Nitrogen uptake (mmol/g)	Water fraction	Water uptake (mmol/g)	total uptake (mmol/g)
1.01325			0	-0.0016	
1.01325			0.05	0.0327	
1.01325			0.1	0.0618	
1.01325			0.15	0.0906	
1.01325			0.2	0.1313	
1.01325			0.25	0.1861	
1.01325			0.3	0.2661	
1.01325			0.35	0.4012	
1.01325			0.4	0.6672	
1.01325			0.45	1.2342	
1.01325			0.5	2.4358	
1.01325			0.55	5.1336	
1.01325			0.6	11.6105	
1.01325			0.65	16.7459	
1.01325			0.7	19.4426	
1.01325			0.75	20.6279	
1.01325			0.8	21.2324	
1.01325			0.85	21.5051	
1.01325			0.9	21.7215	
1.01325			0.95	21.9814	
