Adsorption isotherm of Nitrogen, Water on Activated Nanoporous Carbon BAM-P109
DOI: 10.1007/s10450-023-00383-1
Article source: Figure 3
Adsorbate Nitrogen: InChIKey IJGRMHOSHXDMSA-UHFFFAOYSA-N
Adsorbate Water: InChIKey XLYOFNOQVPJJNP-UHFFFAOYSA-N
Kind: experiment
Isotherm type: excess
Temperature: 298 K
Tabular data in the source: 0
pressure (bar)	Nitrogen fraction	Nitrogen uptake (mmol/g)	Water fraction	Water uptake (mmol/g)	total uptake (mmol/g)
1.01325			0	0.0008	
1.01325			0.05	0.0364	
1.01325			0.1	0.0631	
1.01325			0.15	0.0914	
1.01325			0.2	0.1249	
1.01325			0.25	0.167	
1.01325			0.3	0.2272	
1.01325			0.35	0.335	
1.01325			0.4	0.5388	
1.01325			0.45	1.0013	
1.01325			0.5	2.0359	
1.01325			0.55	4.3199	
1.01325			0.6	9.2329	
1.01325			0.65	15.2414	
1.01325			0.7	19.6356	
1.01325			0.75	20.9916	
1.01325			0.8	21.4655	
1.01325			0.85	21.728	
1.01325			0.9	21.9546	
1.01325			0.95	22.2964	
