Adsorption isotherm of Nitrogen, Water on Activated Nanoporous Carbon BAM-P109
DOI: 10.1007/s10450-023-00383-1
Article source: Figure 3
Adsorbate Nitrogen: InChIKey IJGRMHOSHXDMSA-UHFFFAOYSA-N
Adsorbate Water: InChIKey XLYOFNOQVPJJNP-UHFFFAOYSA-N
Kind: experiment
Isotherm type: excess
Temperature: 298 K
Tabular data in the source: 0
pressure (bar)	Nitrogen fraction	Nitrogen uptake (mmol/g)	Water fraction	Water uptake (mmol/g)	total uptake (mmol/g)
1.01325			0.9502	22.0929	
1.01325			0.9	21.9537	
1.01325			0.8488	21.6806	
1.01325			0.7947	21.4677	
1.01325			0.7503	21.2349	
1.01325			0.706	20.9642	
1.01325			0.6497	20.6228	
1.01325			0.6007	20.1521	
1.01325			0.55	14.663	
1.01325			0.4992	3.0725	
1.01325			0.4497	1.2897	
1.01325			0.3989	0.7533	
1.01325			0.3504	0.4846	
1.01325			0.3	0.3362	
1.01325			0.2508	0.2455	
1.01325			0.2004	0.1907	
1.01325			0.1503	0.1517	
1.01325			0.099	0.1168	
1.01325			0.0504	0.0844	
1.01325			0.0253	0.0683	
