Adsorption isotherm of Nitrogen, Water on Activated Nanoporous Carbon BAM-P109
DOI: 10.1007/s10450-023-00383-1
Article source: Figure 3
Adsorbate Nitrogen: InChIKey IJGRMHOSHXDMSA-UHFFFAOYSA-N
Adsorbate Water: InChIKey XLYOFNOQVPJJNP-UHFFFAOYSA-N
Kind: experiment
Isotherm type: excess
Temperature: 298 K
Tabular data in the source: 0
pressure (bar)	Nitrogen fraction	Nitrogen uptake (mmol/g)	Water fraction	Water uptake (mmol/g)	total uptake (mmol/g)
1.01325			0	0.001	
1.01325			0.05	0.0366	
1.01325			0.1	0.0635	
1.01325			0.15	0.0916	
1.01325			0.2	0.1244	
1.01325			0.25	0.1652	
1.01325			0.3	0.2246	
1.01325			0.35	0.3287	
1.01325			0.4	0.5289	
1.01325			0.45	0.9754	
1.01325			0.5	1.9817	
1.01325			0.55	4.2137	
1.01325			0.6	9.0864	
1.01325			0.65	15.351	
1.01325			0.7	19.8764	
1.01325			0.75	21.0098	
1.01325			0.8	21.4233	
1.01325			0.85	21.6755	
1.01325			0.9	21.8983	
1.01325			0.95	22.2363	
