Adsorption isotherm of Nitrogen, Water on Activated Nanoporous Carbon BAM-P109
DOI: 10.1007/s10450-023-00383-1
Article source: Figure 3
Adsorbate Nitrogen: InChIKey IJGRMHOSHXDMSA-UHFFFAOYSA-N
Adsorbate Water: InChIKey XLYOFNOQVPJJNP-UHFFFAOYSA-N
Kind: experiment
Isotherm type: excess
Temperature: 298 K
Tabular data in the source: 0
pressure (bar)	Nitrogen fraction	Nitrogen uptake (mmol/g)	Water fraction	Water uptake (mmol/g)	total uptake (mmol/g)
1.01325			0.0004	0	
1.01325			0.0499	0.0378	
1.01325			0.1002	0.0574	
1.01325			0.149	0.0875	
1.01325			0.1988	0.1208	
1.01325			0.2502	0.1679	
1.01325			0.3	0.2257	
1.01325			0.35	0.3349	
1.01325			0.3997	0.5291	
1.01325			0.4493	0.9404	
1.01325			0.5001	1.8067	
1.01325			0.5493	4.2168	
1.01325			0.6048	9.9737	
1.01325			0.6513	15.3574	
1.01325			0.6943	18.9867	
1.01325			0.75	20.6481	
1.01325			0.8	21.1919	
1.01325			0.8477	21.6412	
1.01325			0.8998	21.8764	
1.01325			0.9502	22.0929	
