Adsorption isotherm of Helium, Water on Activated Nanoporous Carbon BAM-P109
DOI: 10.1007/s10450-023-00383-1
Article source: Figure S11
Adsorbate Helium: InChIKey SWQJXJOGLNCZEY-UHFFFAOYSA-N
Adsorbate Water: InChIKey XLYOFNOQVPJJNP-UHFFFAOYSA-N
Kind: experiment
Isotherm type: excess
Temperature: 298 K
Tabular data in the source: 0
pressure (bar)	Helium fraction	Helium uptake (mmol/g)	Water fraction	Water uptake (mmol/g)	total uptake (mmol/g)
1.01325			0.9485	23.0077	
1.01325			0.8977	22.7952	
1.01325			0.8481	22.5743	
1.01325			0.8017	22.3448	
1.01325			0.7555	22.1145	
1.01325			0.6978	21.845	
1.01325			0.6507	21.5473	
1.01325			0.5991	21.1297	
1.01325			0.5512	16.9548	
1.01325			0.5001	4.2896	
1.01325			0.45	1.8809	
1.01325			0.401	1.4605	
1.01325			0.3511	0.9668	
1.01325			0.3031	0.6801	
1.01325			0.2493	0.5077	
1.01325			0.2041	0.4081	
1.01325			0.1509	0.326	
1.01325			0.1004	0.2935	
