Adsorption isotherm of Nitrogen, Water on Activated Nanoporous Carbon BAM-P109
DOI: 10.1007/s10450-023-00383-1
Article source: Figure 3
Adsorbate Nitrogen: InChIKey IJGRMHOSHXDMSA-UHFFFAOYSA-N
Adsorbate Water: InChIKey XLYOFNOQVPJJNP-UHFFFAOYSA-N
Kind: experiment
Isotherm type: excess
Temperature: 298 K
Tabular data in the source: 0
pressure (bar)	Nitrogen fraction	Nitrogen uptake (mmol/g)	Water fraction	Water uptake (mmol/g)	total uptake (mmol/g)
1.01325			0	0.0433	
1.01325			0.05	0.097	
1.01325			0.1	0.1369	
1.01325			0.15	0.1835	
1.01325			0.2	0.2433	
1.01325			0.25	0.3242	
1.01325			0.3	0.4427	
1.01325			0.35	0.6396	
1.01325			0.4	0.9776	
1.01325			0.45	1.7513	
1.01325			0.5	9.1006	
1.01325			0.55	17.3957	
1.01325			0.6	20.3193	
1.01325			0.65	20.7511	
1.01325			0.7	21.0495	
1.01325			0.75	21.3047	
1.01325			0.8	21.5433	
1.01325			0.85	21.7905	
1.01325			0.9	22.0576	
1.01325			0.95	22.2964	
