Adsorption isotherm of Nitrogen on MIL-101
DOI: 10.1016/j.jelechem.2013.09.017
Adsorbate Nitrogen: InChIKey IJGRMHOSHXDMSA-UHFFFAOYSA-N
Temperature: 77 K
Tabular data in the source: 0
pressure (bar)	uptake (cm3(STP)/g)
0.00372489	23.3849
0.00372489	95.4641
0.00372489	182.989
0.00372489	256.784
0.00801532	332.296
0.015166	416.388
0.025177	471.306
0.045199	534.804
0.0666512	582.857
0.112416	670.382
0.135298	756.19
0.225397	874.606
0.226827	852.296
0.236838	922.659
0.278312	932.956
0.324077	941.537
0.399875	950.118
0.594374	970.712
0.685903	968.995
0.841789	986.157
0.974792	1008.47
