Adsorption isotherm of Carbon Dioxide on HP-COF-1
DOI: 10.1021/jacs.5b09487
Article source: Figure S15
Adsorbate Carbon Dioxide: InChIKey CURLTUGMZLYLDI-UHFFFAOYSA-N
Kind: experiment
Temperature: 273 K
Tabular data in the source: 0
pressure (bar)	uptake (cm3(STP)/g)
0.213794	0.840841
2.05727	4.59459
3.82919	7.74775
5.60111	10.9009
7.23142	13.9039
9.21566	17.2072
10.9158	19.6096
12.5457	22.3123
14.3181	25.7658
16.0881	27.5676
17.8589	29.97
19.5585	31.9219
21.1886	34.7748
22.8889	37.3273
24.5887	39.4294
26.5714	41.6817
28.2	43.4835
29.9707	45.7357
31.5991	47.3874
33.299	49.6396
34.8572	51.5916
1.54614	3.88605
3.25263	8.65631
5.27407	12.2376
6.73105	15.1359
8.66823	17.8665
10.7682	21.1081
12.2219	23.3261
14.0814	26.5665
15.5343	28.6144
17.388	30.6643
19.407	33.7355
20.7805	35.9531
22.4747	38.1723
24.1657	39.7112
26.102	42.2717
27.874	43.981
29.7702	46.5413
31.4203	47.91
33.1947	50.1295
34.6443	51.4972
