Adsorption isotherm of Nitrogen on HP-COF-2
DOI: 10.1021/jacs.5b09487
Article source: Figure 3a
Adsorbate Nitrogen: InChIKey IJGRMHOSHXDMSA-UHFFFAOYSA-N
Kind: experiment
Temperature: 77 K
Tabular data in the source: 0
pressure (bar)	uptake (cm3(STP)/g)
0.008507	87.2509
0.00841	99.9019
0.0083	114.36
0.008203	127.011
0.010427	136.039
0.012636	146.875
0.017125	159.509
0.023878	175.75
0.051277	190.11
0.071868	195.459
0.094765	198.991
0.11421	204.344
0.156538	215.036
0.202319	223.909
0.259575	230.934
0.307662	237.991
0.355763	243.241
0.408463	246.668
0.463413	255.508
0.513806	260.75
0.559615	266.008
0.609994	273.057
0.664958	280.09
0.713045	287.147
0.758853	292.406
0.811511	301.254
0.868741	311.893
0.91216	329.811
0.959929	378.435
1.00108	692.746
0.046886	200.036
0.101585	224.388
0.151076	230.332
0.20838	234.195
0.252661	244.255
0.296942	258.411
0.336013	266.444
0.411551	268.187
0.455832	272.103
0.494904	280.136
0.552208	279.905
0.593884	285.88
0.672027	289.659
0.716308	297.671
0.747565	305.736
0.810079	315.722
0.872593	323.661
0.916874	352.151
0.96376	450.255
0.997621	685.613
