Adsorption isotherm of Carbon Dioxide on HP-COF-1
DOI: 10.1021/jacs.5b09487
Article source: Figure S15
Adsorbate Carbon Dioxide: InChIKey CURLTUGMZLYLDI-UHFFFAOYSA-N
Kind: experiment
Temperature: 295 K
Tabular data in the source: 0
pressure (bar)	uptake (cm3(STP)/g)
0.611015	0.39039
4.02758	2.49249
6.34687	4.29429
9.39792	6.3964
12.8137	8.1982
15.2549	10
18.7929	11.952
21.3544	13.1532
24.4044	14.8048
27.3321	16.3063
30.625	17.6577
33.3094	19.3093
36.4798	20.3604
39.2859	21.9369
42.4578	23.6637
45.3845	24.7147
48.5544	25.6156
51.3604	27.1171
54.4088	28.1682
57.3359	29.3694
59.8974	30.5706
3.05222	0.655857
5.41645	2.53333
8.47712	5.09305
11.8113	7.31341
14.7268	9.02238
17.3701	11.2408
20.5619	12.9505
24.3092	15.002
26.2561	16.5382
29.861	18.079
32.3577	19.2766
35.9612	20.6474
38.8766	22.3563
42.0642	23.5559
45.669	25.0967
48.1714	26.9746
50.6611	27.3218
53.2975	28.6899
56.4822	29.5492
60.0828	30.5799
