Adsorption isotherm of Carbon Dioxide on HP-COF-2
DOI: 10.1021/jacs.5b09487
Article source: Figure S18
Adsorbate Carbon Dioxide: InChIKey CURLTUGMZLYLDI-UHFFFAOYSA-N
Kind: experiment
Temperature: 273 K
Tabular data in the source: 0
pressure (bar)	uptake (cm3(STP)/g)
0.331424	0.550802
1.9077	4.64986
3.72972	8.06407
5.7983	11.1355
7.20564	13.525
9.02579	16.1411
10.5148	18.1884
12.3336	20.2345
13.988	22.5092
15.8055	23.9853
17.6232	25.5754
19.276	27.1661
21.0108	28.5285
22.6628	29.7771
24.397	30.9115
26.2963	32.1593
27.7835	33.4085
29.6823	34.4283
31.4165	35.5627
33.0682	36.6974
34.3902	37.8331
2.1134	4.09551
3.82248	8.35281
5.77145	11.3754
6.99115	13.9515
8.85869	16.75
10.7252	19.0997
12.4283	20.7769
14.1319	22.6785
15.9165	24.5798
17.7807	25.9199
19.2408	27.4857
21.0253	29.387
22.647	30.8401
24.6723	31.8992
26.2117	32.7356
27.914	34.0762
29.5349	35.1928
31.0744	36.0853
32.9375	36.9767
34.8009	37.9803
