Adsorption isotherm of Nitrogen on HP-COF-1
DOI: 10.1021/jacs.5b09487
Article source: Figure S13
Adsorbate Nitrogen: InChIKey IJGRMHOSHXDMSA-UHFFFAOYSA-N
Kind: experiment
Temperature: 273 K
Tabular data in the source: 0
pressure (bar)	uptake (cm3(STP)/g)
0.062202	0.219645
0.111166	0.571076
0.163869	0.781473
0.214691	0.989557
0.271203	1.4959
0.318285	1.84502
0.372893	2.20338
0.431264	2.56638
0.480205	2.77215
0.529168	3.12358
0.581872	3.33398
0.634644	3.98135
0.685466	4.18943
0.738169	4.39983
0.787133	4.75126
0.841763	5.25529
0.890727	5.60672
0.947193	5.82174
0.998015	6.02983
1.0451	6.37894
0.092991	0.355609
0.141661	0.314623
0.196866	0.30585
0.247677	0.467267
0.30732	0.627281
0.355968	1.12803
0.409077	1.96704
0.455404	1.6207
0.512817	1.61157
0.565858	1.94213
0.614461	2.1039
0.665272	2.26531
0.72273	2.59517
0.775816	3.2647
0.822233	3.5963
0.879669	3.75667
0.930435	3.57911
0.985684	3.90931
1.03431	4.24057
