Adsorption isotherm of Carbon Dioxide on HP-COF-2
DOI: 10.1021/jacs.5b09487
Article source: Figure S14
Adsorbate Carbon Dioxide: InChIKey CURLTUGMZLYLDI-UHFFFAOYSA-N
Kind: experiment
Temperature: 273 K
Tabular data in the source: 0
pressure (bar)	uptake (cm3(STP)/g)
0.134211	0.030449
0.269027	0.874333
1.86022	4.49041
3.31115	8.1069
5.32674	11.1183
7.20389	13.8284
8.66268	16.1374
10.3343	18.0434
12.073	20.4522
14.0239	22.5586
15.9089	23.9612
17.514	25.264
19.2557	27.1699
21.0718	28.3715
22.6074	29.574
24.4222	30.9768
26.1688	32.078
27.916	33.0787
29.5205	34.4821
31.4756	35.8845
33.0831	36.785
34.5492	37.8871
