Adsorption isotherm of Nitrogen on HP-COF-1
DOI: 10.1021/jacs.5b09487
Article source: Figure 3a
Adsorbate Nitrogen: InChIKey IJGRMHOSHXDMSA-UHFFFAOYSA-N
Kind: experiment
Temperature: 77 K
Tabular data in the source: 0
pressure (bar)	uptake (cm3(STP)/g)
0.008176	130.626
0.008079	143.277
0.01022	163.148
0.010109	177.607
0.005303	206.539
0.005206	219.19
0.01196	235.431
0.014128	251.689
0.025452	269.721
0.04596	285.913
0.061938	294.892
0.084808	302.039
0.158085	312.621
0.206172	319.678
0.254245	328.543
0.306944	331.969
0.357337	337.211
0.405438	342.461
0.460416	347.687
0.513102	352.921
0.563509	356.355
0.616181	363.396
0.6712	363.2
0.705546	368.499
0.762817	373.717
0.815461	384.372
0.865868	387.807
0.913927	398.479
0.959667	412.774
1.00471	517.432
0.044281	300.388
0.091166	312.485
0.138052	316.391
0.197961	322.292
0.234428	328.288
0.294337	334.189
0.346433	344.218
0.406342	341.928
0.453228	354.025
0.505323	359.958
0.560022	359.737
0.596489	365.733
0.64077	369.649
0.69547	377.619
0.760589	371.213
0.80487	387.416
0.85436	395.407
0.916874	391.059
0.966364	460.483
1.00023	509.493
