Adsorption isotherm of Carbon Dioxide on HP-COF-1
DOI: 10.1021/jacs.5b09487
Article source: Figure S13
Adsorbate Carbon Dioxide: InChIKey CURLTUGMZLYLDI-UHFFFAOYSA-N
Kind: experiment
Temperature: 273 K
Tabular data in the source: 0
pressure (bar)	uptake (cm3(STP)/g)
0.005759	0.150283
0.011426	0.302879
0.060823	3.42183
0.112262	7.56271
0.16354	10.684
0.216746	14.0989
0.269906	17.2225
0.323044	20.2004
0.37804	23.035
0.425442	25.4233
0.480415	28.1122
0.529743	30.7942
0.582812	33.3351
0.637717	35.5871
0.688882	37.98
0.741928	40.3753
0.796809	42.4816
0.84981	44.5856
0.89907	46.8306
0.952116	49.2258
0.999427	51.0316
1.04674	52.8373
0.038438	4.56832
0.094114	8.11879
0.147605	11.8391
0.205399	14.7113
0.252108	17.2462
0.301137	20.6283
0.363349	23.4997
0.416637	25.6947
0.461115	28.0605
0.525512	30.7621
0.567827	33.4672
0.614446	35.3242
0.674382	37.6876
0.725395	39.3744
0.783077	41.3991
0.836388	43.7635
0.89193	46.2971
0.949545	47.8134
0.998372	49.67
1.03605	50.681
