Adsorption isotherm of Carbon Dioxide on HP-COF-2
DOI: 10.1021/jacs.5b09487
Article source: Figure S18
Adsorbate Carbon Dioxide: InChIKey CURLTUGMZLYLDI-UHFFFAOYSA-N
Kind: experiment
Temperature: 295 K
Tabular data in the source: 0
pressure (bar)	uptake (cm3(STP)/g)
0.853952	0.208243
3.70231	1.79891
6.40857	3.38984
9.39856	4.86623
12.103	6.00114
15.093	7.47752
18.3658	8.61135
21.496	9.63144
24.3416	10.5381
27.1885	11.7867
30.3178	12.5788
33.1639	13.5994
36.1506	14.2778
39.1392	15.4122
42.126	16.0905
44.9706	16.7691
48.2434	17.9029
51.0881	18.5816
53.9337	19.4882
56.7783	20.1668
59.623	20.8454
9.22119	4.42159
12.2948	5.87416
15.2289	7.32699
18.4415	8.66712
21.0954	9.78394
24.0286	11.0124
27.3784	11.7914
30.4516	13.1318
32.966	14.2489
36.0365	14.9162
38.6899	15.9208
42.0402	16.812
45.5294	17.5907
47.9027	18.2593
51.2529	19.1505
54.3242	20.0421
56.6975	20.7108
59.2079	20.8182
