Adsorption isotherm of Nitrogen on MZIF-8
DOI: 10.1002/cssc.201403402
Article source: Figure 1b
Adsorbate Nitrogen: InChIKey IJGRMHOSHXDMSA-UHFFFAOYSA-N
Kind: experiment
Temperature: 77 K
Tabular data in the source: 0
pressure (bar)	uptake (cm3(STP)/g)
0.002384	0.002353
0.007152	722.022
0.009536	779.783
0.019073	854.874
0.035762	857.762
0.047682	854.874
0.057219	854.874
0.073908	857.762
0.078676	857.762
0.102517	857.762
0.147815	860.65
0.154967	857.762
0.207418	860.65
0.247948	863.538
0.267021	860.65
0.305167	863.538
0.312319	860.65
0.350465	863.538
0.357617	857.762
0.407684	860.65
0.452983	863.538
0.457751	860.65
0.510201	863.538
0.519737	863.538
0.555499	863.538
0.56742	860.65
0.60795	863.538
0.660401	863.538
0.665169	863.538
0.705699	866.426
0.712851	863.538
0.758149	866.426
0.760533	863.538
0.812984	866.426
0.865435	866.426
0.917885	866.426
0.965567	869.314
1.00848	880.866
