Adsorption isotherm of Nitrogen on nZDC1000
DOI: 10.1002/cssc.201403402
Article source: Figure 4b
Adsorbate Nitrogen: InChIKey IJGRMHOSHXDMSA-UHFFFAOYSA-N
Kind: experiment
Temperature: 77 K
Tabular data in the source: 0
pressure (bar)	uptake (cm3(STP)/g)
0.001655	252.955
0.0067	263.629
0.010481	269.73
0.016781	278.882
0.021819	284.985
0.02811	288.042
0.039438	297.202
0.050762	303.314
0.07466	310.969
0.101074	320.152
0.148853	324.795
0.200409	334.016
0.251959	338.665
0.30477	346.363
0.353804	349.484
0.404096	354.132
0.458158	357.26
0.459425	363.358
0.505934	360.38
0.508465	371.05
0.554974	368.073
0.556241	374.17
0.606522	371.198
0.606537	380.341
0.658079	380.418
0.663125	391.092
0.707119	388.111
0.709648	397.258
0.757422	398.853
0.763724	409.53
0.81024	411.123
0.8128	440.079
0.860564	435.58
0.86328	563.584
0.910972	513.37
0.911342	749.561
0.961626	748.113
0.988033	752.724
1.00689	752.752
