Adsorption isotherm of Nitrogen on mZDC1000
DOI: 10.1002/cssc.201403402
Article source: Figure 4b
Adsorbate Nitrogen: InChIKey IJGRMHOSHXDMSA-UHFFFAOYSA-N
Kind: experiment
Temperature: 77 K
Tabular data in the source: 0
pressure (bar)	uptake (cm3(STP)/g)
0.002287	655.242
0.004844	682.674
0.009899	699.443
0.022499	717.748
0.027535	722.327
0.045164	740.639
0.053968	743.7
0.079128	754.405
0.104283	762.062
0.154582	771.28
0.202361	775.923
0.252654	780.57
0.304203	785.219
0.354494	788.343
0.407298	791.47
0.456331	794.591
0.509138	799.242
0.563198	800.847
0.607199	802.437
0.661259	804.042
0.714061	805.645
0.758066	808.759
0.761834	807.241
0.810865	808.838
0.86367	811.966
0.9127	813.563
0.964248	816.688
1.00954	836.566
