Adsorption isotherm of Nitrogen on mZDC1000 carbonization residence time of 10h
DOI: 10.1002/cssc.201403402
Article source: Figure 8b
Adsorbate Nitrogen: InChIKey IJGRMHOSHXDMSA-UHFFFAOYSA-N
Kind: experiment
Temperature: 77 K
Tabular data in the source: 0
pressure (bar)	uptake (cm3(STP)/g)
0.002524	214.858
0.006309	246.124
0.01388	262.093
0.026498	274.74
0.037855	279.404
0.044164	280.739
0.049211	284.733
0.07571	290.072
0.100946	294.745
0.150158	300.764
0.200631	305.453
0.204416	303.46
0.251105	309.477
0.256152	305.49
0.301578	312.837
0.307887	308.85
0.352051	315.53
0.35836	312.209
0.405048	318.891
0.411357	312.909
0.454259	320.919
0.459306	314.936
0.505994	324.279
0.507256	317.628
0.555205	326.307
0.557729	319.657
0.606941	328.336
0.608202	321.685
0.658675	330.366
0.659938	324.38
0.710411	325.078
0.712934	331.732
0.760884	333.094
0.768455	326.447
0.810095	333.126
0.812619	326.476
0.859307	332.493
0.86183	327.839
0.912304	334.524
0.913565	329.203
0.962777	337.217
0.989275	340.561
0.990537	342.557
1.00442	351.879
