Adsorption isotherm of Nitrogen on mZDC1000 carbonization residence time of 0h
DOI: 10.1002/cssc.201403402
Article source: Figure 8b
Adsorbate Nitrogen: InChIKey IJGRMHOSHXDMSA-UHFFFAOYSA-N
Kind: experiment
Temperature: 77 K
Tabular data in the source: 0
pressure (bar)	uptake (cm3(STP)/g)
0.002524	164.968
0.003785	172.951
0.006309	191.578
0.011357	198.234
0.023975	205.559
0.035331	212.218
0.040379	216.213
0.054259	218.217
0.073186	224.217
0.078234	220.894
0.098423	228.224
0.105994	225.568
0.150158	234.245
0.155206	230.257
0.199369	238.268
0.205679	234.281
0.251105	240.963
0.257413	237.641
0.301578	245.653
0.307887	239.67
0.353312	248.347
0.35836	242.364
0.406309	252.373
0.408833	245.723
0.459306	253.738
0.460568	246.422
0.503471	256.428
0.511042	248.451
0.556468	258.458
0.561515	248.484
0.606941	259.157
0.622083	251.85
0.65489	260.519
0.667509	251.214
0.70284	262.546
0.709148	256.563
0.759622	264.579
0.764669	257.265
0.807571	265.275
0.815142	258.628
0.859307	267.305
0.874449	260.663
0.911041	269.334
0.919875	261.358
0.957729	272.026
0.966562	262.719
0.988013	275.371
0.993061	268.058
1.00694	287.357
