Adsorption isotherm of Nitrogen on mZDC1000 carbonization residence time of 24h
DOI: 10.1002/cssc.201403402
Article source: Figure 8b
Adsorbate Nitrogen: InChIKey IJGRMHOSHXDMSA-UHFFFAOYSA-N
Kind: experiment
Temperature: 77 K
Tabular data in the source: 0
pressure (bar)	uptake (cm3(STP)/g)
0.003785	212.863
0.005047	224.837
0.007571	256.103
0.011357	270.739
0.017666	284.047
0.022713	287.376
0.026498	293.366
0.042902	300.028
0.050473	305.355
0.07571	313.353
0.100946	320.022
0.15142	325.377
0.200631	331.396
0.251105	334.089
0.305363	338.116
0.353312	340.808
0.360883	339.483
0.405048	342.173
0.406309	343.504
0.456782	348.859
0.463092	346.867
0.503471	352.88
0.555205	355.575
0.557729	352.916
0.605678	357.604
0.606941	355.609
0.659938	357.639
0.707887	359.666
0.759622	362.361
0.810095	363.06
0.859307	365.087
0.911041	367.782
0.961514	370.476
0.98549	372.487
1.00568	376.492
