Adsorption isotherm of Nitrogen on NZIF-8
DOI: 10.1002/cssc.201403402
Article source: Figure 1b
Adsorbate Nitrogen: InChIKey IJGRMHOSHXDMSA-UHFFFAOYSA-N
Kind: experiment
Temperature: 77 K
Tabular data in the source: 0
pressure (bar)	uptake (cm3(STP)/g)
0.004768	271.48
0.009536	309.025
0.016689	361.011
0.026225	369.675
0.04053	378.339
0.054835	384.116
0.073908	387.004
0.100133	392.78
0.150199	401.444
0.20265	404.332
0.255101	410.108
0.302783	412.996
0.355233	415.884
0.4053	421.661
0.457751	424.549
0.505433	427.437
0.557883	436.101
0.60795	436.101
0.610334	444.765
0.655633	441.877
0.660401	453.43
0.708083	450.542
0.758149	476.534
0.808216	482.31
0.8106	522.744
0.858283	519.856
0.865435	693.141
0.908349	612.274
0.963183	733.574
0.987025	736.462
0.991793	733.574
1.0061	739.35
