Adsorption isotherm of Carbon monoxide on Cr-MIL(101)
DOI: 10.1016/j.cej.2012.04.071
Adsorbate Carbon monoxide: InChIKey UGFAIRIUMAVXCW-UHFFFAOYSA-N
Temperature: 303 K
Tabular data in the source: 0
pressure (bar)	uptake (mmol/g)
0.00296976	0.00742105
0.00744863	0.0715056
0.0328289	0.147914
0.0820965	0.239111
0.128378	0.281013
0.20004	0.322914
0.28066	0.364815
0.391139	0.404252
0.509082	0.436294
0.618068	0.463407
0.733026	0.49052
0.843505	0.517632
0.95697	0.539815
1.07342	0.566928
1.12269	0.581717
