Adsorption isotherm of Nitrogen on Cr-MIL(101)
DOI: 10.1016/j.cej.2012.04.071
Adsorbate Nitrogen: InChIKey IJGRMHOSHXDMSA-UHFFFAOYSA-N
Temperature: 77 K
Tabular data in the source: 0
pressure (bar)	uptake (cm3(STP)/g)
0.00843546	201.699
0.0112524	220.291
0.0309707	276.911
0.0577312	320.009
0.0971678	365.643
0.112661	392.685
0.166182	433.249
0.20421	452.685
0.221112	473.812
0.243647	495.784
0.319703	503.389
0.373224	508.46
0.468999	514.375
0.526745	516.065
0.645055	521.136
0.821112	528.742
0.898576	531.277
0.952097	533.812
0.991534	538.037
