Adsorption isotherm of Carbon Dioxide on Cr-MIL(101)
DOI: 10.1016/j.cej.2012.04.071
Adsorbate Carbon Dioxide: InChIKey CURLTUGMZLYLDI-UHFFFAOYSA-N
Temperature: 288 K
Tabular data in the source: 0
pressure (bar)	uptake (mmol/g)
0.00446271	6.76514
0.029843	30.4271
0.064181	50.7088
0.132857	77.3285
0.220942	104.371
0.335899	131.413
0.449364	155.075
0.562829	176.202
0.671815	195.216
0.788266	212.117
0.903223	229.441
1.01221	245.498
1.1197	259.441
