Adsorption isotherm of Methane on Cr-MIL(101)
DOI: 10.1016/j.cej.2012.04.071
Adsorbate Methane: InChIKey VNWKTOKETHGBQD-UHFFFAOYSA-N
Temperature: 313 K
Tabular data in the source: 0
pressure (bar)	uptake (mmol/g)
0.0164064	0.00495626
0.065674	0.019745
0.114942	0.0296041
0.180632	0.0468577
0.232885	0.0616464
0.343364	0.0887591
0.455336	0.120801
0.567308	0.150379
0.680773	0.175027
0.783787	0.199675
0.903223	0.231717
1.01221	0.2539
1.06745	0.276083
1.1212	0.288407
