Adsorption isotherm of Carbon monoxide on Cr-MIL(101)
DOI: 10.1016/j.cej.2012.04.071
Adsorbate Carbon monoxide: InChIKey UGFAIRIUMAVXCW-UHFFFAOYSA-N
Temperature: 313 K
Tabular data in the source: 0
pressure (bar)	uptake (mmol/g)
0.00744863	0.00495626
0.0388007	0.103548
0.0746317	0.162703
0.116435	0.214463
0.179139	0.256365
0.229899	0.285942
0.340378	0.330308
0.450857	0.362351
0.562829	0.391928
0.673308	0.416576
0.783787	0.438759
0.900237	0.460942
1.0137	0.48066
1.06745	0.497914
1.1212	0.507773
