Adsorption isotherm of Carbon Dioxide on Cr-MIL(101)
DOI: 10.1016/j.cej.2012.04.071
Adsorbate Carbon Dioxide: InChIKey CURLTUGMZLYLDI-UHFFFAOYSA-N
Temperature: 313 K
Tabular data in the source: 0
pressure (bar)	uptake (mmol/g)
0.0149134	0.0517872
0.0701529	0.234182
0.116435	0.369745
0.164209	0.473266
0.203026	0.561998
0.279167	0.695097
0.397111	0.882421
0.509082	1.02784
0.618068	1.15848
0.728547	1.28172
0.847984	1.40989
0.959956	1.5208
1.07193	1.62432
1.1212	1.66869
