Adsorption isotherm of Nitrogen on Cr-MIL(101)
DOI: 10.1016/j.cej.2012.04.071
Adsorbate Nitrogen: InChIKey IJGRMHOSHXDMSA-UHFFFAOYSA-N
Temperature: 313 K
Tabular data in the source: 0
pressure (bar)	uptake (mmol/g)
0.0552233	0.00243811
0.128378	0.0123506
0.226913	0.0296041
0.286632	0.0369985
0.398604	0.0517872
0.504604	0.0591816
0.619561	0.0715056
0.736012	0.0912239
0.846491	0.103548
0.950998	0.118337
1.01818	0.125731
1.06894	0.13066
1.1197	0.138055
