Adsorption isotherm of Carbon Dioxide on Cr-MIL(101)
DOI: 10.1016/j.cej.2012.04.071
Adsorbate Carbon Dioxide: InChIKey CURLTUGMZLYLDI-UHFFFAOYSA-N
Temperature: 303 K
Tabular data in the source: 0
pressure (bar)	uptake (mmol/g)
0.00296976	0.00495626
0.0402937	0.0764351
0.0671669	0.167632
0.131364	0.300731
0.17466	0.382069
0.226913	0.468337
0.337392	0.640872
0.449364	0.810942
0.561336	0.963759
0.674801	1.10918
0.791251	1.25214
0.903223	1.37784
1.0137	1.50601
1.07193	1.56024
1.12269	1.61693
