Adsorption isotherm of Nitrogen on Cr-MIL(101)
DOI: 10.1016/j.cej.2012.04.071
Adsorbate Nitrogen: InChIKey IJGRMHOSHXDMSA-UHFFFAOYSA-N
Temperature: 303 K
Tabular data in the source: 0
pressure (bar)	uptake (mmol/g)
0.0552233	0.00249147
0.11942	0.00988583
0.219449	0.019745
0.276181	0.0296041
0.337392	0.0443929
0.465787	0.054252
0.585223	0.066576
0.697195	0.0813647
0.812153	0.0961534
0.921139	0.106013
1.0361	0.120801
1.08984	0.125731
1.13015	0.133125
