Adsorption isotherm of Methane on Cr-MIL(101)
DOI: 10.1016/j.cej.2012.04.071
Adsorbate Methane: InChIKey VNWKTOKETHGBQD-UHFFFAOYSA-N
Temperature: 303 K
Tabular data in the source: 0
pressure (bar)	uptake (mmol/g)
0.00744863	2.67e-05
0.065674	0.0123506
0.126885	0.0246746
0.180632	0.0443929
0.228406	0.0616464
0.340378	0.0961534
0.450857	0.13066
0.561336	0.157773
0.67928	0.189815
0.791251	0.224322
0.90173	0.25883
1.01669	0.288407
1.07342	0.300731
1.12567	0.320449
