Adsorption isotherm of Nitrogen on Cr-MIL(101)
DOI: 10.1016/j.cej.2012.04.071
Adsorbate Nitrogen: InChIKey IJGRMHOSHXDMSA-UHFFFAOYSA-N
Temperature: 77 K
Tabular data in the source: 0
pressure (bar)	uptake (cm3(STP)/g)
0.00229475	258.029
0.00944547	292.353
0.0337579	366.148
0.0580703	418.491
0.0738019	445.092
0.095254	476.841
0.120997	527.468
0.163901	567.798
0.201085	596.973
0.213956	617.567
0.233978	647.6
0.342669	662.188
0.508565	675.917
0.628697	682.782
0.75312	687.072
0.8518	693.079
0.934748	697.369
0.970502	709.382
0.990524	729.118
0.993384	758.293
