Adsorption isotherm of Carbon monoxide on Cr-MIL(101)
DOI: 10.1016/j.cej.2012.04.071
Adsorbate Carbon monoxide: InChIKey UGFAIRIUMAVXCW-UHFFFAOYSA-N
Temperature: 288 K
Tabular data in the source: 0
pressure (bar)	uptake (mmol/g)
0.00546434	3.70101
0.00849624	13.14
0.0236558	22.1499
0.0676184	29.8726
0.132804	35.8792
0.226793	41.4568
0.34049	45.3182
0.448122	49.1796
0.561819	51.7538
0.673999	53.899
0.789211	57.3314
0.901392	59.4766
1.01206	62.0508
1.06815	63.338
1.12272	64.6251
