Adsorption isotherm of Nitrogen on Cr-MIL(101)
DOI: 10.1016/j.cej.2012.04.071
Adsorbate Nitrogen: InChIKey IJGRMHOSHXDMSA-UHFFFAOYSA-N
Temperature: 288 K
Tabular data in the source: 0
pressure (bar)	uptake (mmol/g)
0.0539748	0.26867
0.144932	0.697713
0.220729	2.84293
0.284399	4.98814
0.337458	5.84623
0.454186	8.84953
0.56485	11.4238
0.673999	13.14
0.790727	15.7142
0.901392	18.2885
1.01206	20.0046
1.06966	21.7208
1.12272	21.7208
