Adsorption isotherm of Methane on Cr-MIL(101)
DOI: 10.1016/j.cej.2012.04.071
Adsorbate Methane: InChIKey VNWKTOKETHGBQD-UHFFFAOYSA-N
Temperature: 288 K
Tabular data in the source: 0
pressure (bar)	uptake (mmol/g)
0.0100122	0.697713
0.0630705	2.84293
0.131288	5.41719
0.225277	8.84953
0.335942	13.998
0.451154	18.7175
0.567882	23.437
0.675515	27.2984
0.787695	30.7307
0.902908	35.8792
1.01509	40.1697
1.06966	42.3149
1.11817	45.3182
