Adsorption isotherm of Nitrogen on CuAl2O4 spinel, dried gel
DOI: 10.1039/c7nj02279d
Article source: Figure 8
Adsorbate Nitrogen: InChIKey IJGRMHOSHXDMSA-UHFFFAOYSA-N
Kind: experiment
Temperature: 77 K
Tabular data in the source: 0
pressure (bar)	uptake (cm3(STP)/g)
0.020406	9.57
0.040479	10.91
0.058119	12.5
0.099975	12.25
0.141832	13.59
0.198907	13.07
0.247684	15.48
0.298883	13.36
0.352847	15.5
0.403357	17.11
0.45109	17.39
0.502289	19
0.551754	16.62
0.606418	23.28
0.656573	23.82
0.710538	28.88
0.761392	28.1
0.763469	39.26
0.809135	32.63
0.813624	40.87
0.861367	38.22
0.862056	48.06
0.903224	62.95
0.908067	50.19
0.957877	87.94
0.971373	115.31
1.00873	222.94
