Adsorption isotherm of Nitrogen on CuAl2O4 spinel, 1273K
DOI: 10.1039/c7nj02279d
Article source: Figure 8
Adsorbate Nitrogen: InChIKey IJGRMHOSHXDMSA-UHFFFAOYSA-N
Kind: experiment
Temperature: 77 K
Tabular data in the source: 0
pressure (bar)	uptake (cm3(STP)/g)
0.037013	2.4
0.045666	3.47
0.058119	-1.31
0.090978	2.15
0.108973	1.09
0.142865	1.1
0.158094	-0.76
0.189221	2.97
0.214126	3.24
0.242841	4.32
0.263602	4.85
0.290929	5.13
0.313757	4.33
0.342816	5.14
0.362189	4.61
0.394015	5.68
0.414766	5.95
0.446247	3.57
0.464242	4.64
0.496412	6.77
0.508864	7.31
0.537924	5.72
0.56214	4.4
0.597421	7.86
0.614028	6.01
0.645509	4.42
0.662804	4.96
0.70155	7.89
0.716769	6.57
0.757237	5.25
0.769001	4.45
0.813279	7.12
0.864133	7.67
0.911522	8.48
0.966875	18.85
1.00735	51.28
