Adsorption isotherm of Nitrogen on CuAl2O4 spinel, 673K
DOI: 10.1039/c7nj02279d
Article source: Figure 8
Adsorbate Nitrogen: InChIKey IJGRMHOSHXDMSA-UHFFFAOYSA-N
Kind: experiment
Temperature: 77 K
Tabular data in the source: 0
pressure (bar)	uptake (cm3(STP)/g)
0.01764	21.79
0.031826	25.52
0.051199	26.85
0.097898	30.05
0.152552	34.58
0.201329	36.46
0.252872	39.66
0.304415	41.8
0.350426	43.67
0.400935	46.87
0.453167	51.67
0.504366	50.09
0.550032	55.95
0.605375	61.54
0.654851	59.69
0.712959	66.88
0.761736	73.27
0.811557	78.6
0.814323	87.9
0.860678	91.63
0.866555	105.19
0.909799	113.97
0.915676	151.7
0.95961	185.73
0.968263	314.07
1.00493	465.28
