Adsorption isotherm of Nitrogen on CuAl2O4 spinel, 873K
DOI: 10.1039/c7nj02279d
Article source: Figure 8
Adsorbate Nitrogen: InChIKey IJGRMHOSHXDMSA-UHFFFAOYSA-N
Kind: experiment
Temperature: 77 K
Tabular data in the source: 0
pressure (bar)	uptake (cm3(STP)/g)
0.023872	13.03
0.042546	14.89
0.052232	17.55
0.101708	21.28
0.149441	22.63
0.203061	21.05
0.253915	24.25
0.304769	27.18
0.354235	28.26
0.40439	25.35
0.452823	29.88
0.50852	30.16
0.551065	33.09
0.655195	32.59
0.712959	34.47
0.76278	41.39
0.814323	41.13
0.86621	49.12
0.911877	60.56
0.912566	73.05
0.935738	109.46
0.963764	101.76
0.967908	189.98
1.00562	594.68
