Adsorption isotherm of Nitrogen on CuAl2O4 spinel, 1073K
DOI: 10.1039/c7nj02279d
Article source: Figure 8
Adsorbate Nitrogen: InChIKey IJGRMHOSHXDMSA-UHFFFAOYSA-N
Kind: experiment
Temperature: 77 K
Tabular data in the source: 0
pressure (bar)	uptake (cm3(STP)/g)
0.022139	9.57
0.0429	12.5
0.058463	12.24
0.098932	16.5
0.151518	14.65
0.198563	16.53
0.252527	16.54
0.301649	16.29
0.354924	15.24
0.403357	17.91
0.452478	20.84
0.505409	20.06
0.553487	19.81
0.602608	22.48
0.659694	23.03
0.715036	26.23
0.765201	28.1
0.810858	29.44
0.861023	35.3
0.912566	48.87
0.919141	70.13
0.961687	135.24
0.96653	212.57
1.00458	300
