Adsorption isotherm of Hydrogen on Rht-MOF-1
DOI: 10.1039/C3ta14591c
Adsorbate Hydrogen: InChIKey UFHFLCQGNIYNRP-UHFFFAOYSA-N
Temperature: 77 K
Tabular data in the source: 0
pressure (bar)	uptake (wt%)
0.00725045	0.305187
0.0489405	0.717818
0.0996937	0.987611
0.203013	1.28279
0.4024	1.64942
0.609037	1.92757
0.81205	2.13117
1.01506	2.35514
