Adsorption isotherm of Hydrogen on Rht-MOF-1
DOI: 10.1039/C3ta14591c
Adsorbate Hydrogen: InChIKey UFHFLCQGNIYNRP-UHFFFAOYSA-N
Temperature: 87 K
Tabular data in the source: 0
pressure (bar)	uptake (wt%)
0.0271891	0.250221
0.0344397	0.256765
0.0525658	0.337606
0.0616288	0.371239
0.0743171	0.404751
0.0888179	0.444989
0.0978811	0.485409
0.114194	0.5188
0.125071	0.552372
0.141384	0.572188
0.157697	0.62594
0.164948	0.646059
0.179449	0.672723
0.195762	0.699326
0.213888	0.739443
0.219326	0.746048
0.237452	0.779377
0.253765	0.80598
0.266454	0.825917
0.282768	0.85252
0.295456	0.872457
0.311769	0.892273
0.326271	0.918937
0.342584	0.931965
0.357085	0.958628
0.373398	0.978444
0.386087	0.991594
0.4024	1.01141
0.416901	1.04486
0.433214	1.06468
0.447715	1.08455
0.476717	1.1243
0.49303	1.14412
0.505719	1.17084
0.522032	1.18387
0.538346	1.20369
0.549221	1.2169
0.567347	1.24344
0.583661	1.26326
0.599975	1.28307
0.61085	1.28271
0.628976	1.30925
0.64529	1.32907
0.654353	1.3627
0.668853	1.36221
0.688792	1.3887
0.703294	1.40178
0.717794	1.41487
0.739546	1.43451
0.752234	1.43408
0.768547	1.4539
0.808425	1.49329
0.826551	1.49947
0.848302	1.51231
0.860991	1.53225
0.879117	1.54522
0.899056	1.55812
0.906305	1.56467
0.92262	1.58448
0.938933	1.6043
0.960685	1.62393
0.967934	1.6169
0.984248	1.63672
