Adsorption isotherm of Hydrogen on Rht-MOF-1
DOI: 10.1039/C3ta14591c
Adsorbate Hydrogen: InChIKey UFHFLCQGNIYNRP-UHFFFAOYSA-N
Temperature: 87 K
Tabular data in the source: 0
pressure (bar)	uptake (wt%)
0.00725045	0.135504
0.0507531	0.391965
0.0996937	0.573584
0.2012	0.767017
0.404213	1.07922
0.6036	1.32368
0.813863	1.47953
1.01506	1.66284
