Adsorption isotherm of Hydrogen on Rht-MOF-1
DOI: 10.1039/C3ta14591c
Adsorbate Hydrogen: InChIKey UFHFLCQGNIYNRP-UHFFFAOYSA-N
Temperature: 77 K
Tabular data in the source: 0
pressure (bar)	uptake (wt%)
0.00725045	0.19659
0.0163135	0.257372
0.0181261	0.318397
0.0199387	0.359061
0.0217513	0.406511
0.0271891	0.45384
0.0308144	0.460506
0.0398775	0.514501
0.0471279	0.575345
0.0580036	0.629279
0.0670666	0.683274
0.0779423	0.730421
0.0888179	0.784356
0.0996937	0.831503
0.112382	0.878589
0.125071	0.918888
0.139571	0.965914
0.150446	1.01306
0.164948	1.0533
0.177636	1.0936
0.188512	1.14075
0.2012	1.18104
0.215701	1.22128
0.22839	1.25479
0.24289	1.28825
0.259204	1.32164
0.271891	1.35515
0.286393	1.3886
0.308143	1.45574
0.324458	1.48235
0.340771	1.51574
0.362523	1.55573
0.377023	1.57561
0.395149	1.62251
0.415088	1.65578
0.433214	1.68911
0.436839	1.68899
0.453153	1.71559
0.48578	1.78237
0.502094	1.80898
0.516594	1.83564
0.532908	1.86224
0.551034	1.87521
0.565535	1.89509
0.581849	1.92169
0.601787	1.94817
0.616288	1.96805
0.632601	1.98107
0.650727	2.00762
0.667041	2.02065
0.683355	2.04046
0.697856	2.06712
0.715982	2.08009
0.732295	2.09991
0.750421	2.11288
0.766734	2.13269
0.783049	2.15929
0.799362	2.17232
0.817488	2.19208
0.833801	2.21189
0.851927	2.22486
0.868241	2.24468
0.884554	2.2577
0.900868	2.27752
0.917182	2.29055
0.933495	2.30358
0.951621	2.30976
0.967934	2.32957
0.98606	2.34254
