Adsorption isotherm of Argon on Zeolite CAN
DOI: 10.1080/08927020802660614
Adsorbate Argon: InChIKey XKRFYHLGVUSROY-UHFFFAOYSA-N
Temperature: 77 K
Tabular data in the source: 0
pressure (bar)	uptake (mmol/g)
3.66e-07	0.0243436
1.5e-06	0.102999
6.8e-06	0.273419
2.18e-05	0.535604
6.26e-05	0.9551
0.0002	1.40081
0.000736	1.9514
0.00323032	2.43644
0.0127561	2.72485
0.0393667	2.82972
0.135028	2.86905
0.785468	2.89527
