Adsorption isotherm of Argon on Zeolite MFI
DOI: 10.1080/08927020802660614
Adsorbate Argon: InChIKey XKRFYHLGVUSROY-UHFFFAOYSA-N
Temperature: 77 K
Tabular data in the source: 0
pressure (bar)	uptake (mmol/g)
1.14e-07	0.0636713
2.67e-07	0.0767806
1.13e-06	0.142327
2.54e-06	0.299638
6.12e-06	0.640478
1.7e-05	1.5188
4.1e-05	2.68552
6.26e-05	3.06569
9.22e-05	3.35409
0.000238	3.69493
0.000736	3.95712
0.00171377	4.29796
0.00399035	4.94031
0.00653324	5.20249
0.0163221	5.43846
0.0644535	5.50401
0.27309	5.54333
0.936697	5.50401
