Adsorption isotherm of Argon on Zeolite CAN
DOI: 10.1080/08927020802660614
Adsorbate Argon: InChIKey XKRFYHLGVUSROY-UHFFFAOYSA-N
Temperature: 77 K
Tabular data in the source: 0
pressure (bar)	uptake (mmol/g)
1.07e-07	0.574932
2.86e-07	1.53191
6.9e-07	2.23981
1.35e-06	2.46266
3.03e-06	2.59376
1.33e-05	2.67241
8.29e-05	2.67241
0.00112311	2.67241
0.0132133	2.68552
0.872993	2.69863
