Adsorption isotherm of Argon on Zeolite CAN
DOI: 10.1080/08927020802660614
Adsorbate Argon: InChIKey XKRFYHLGVUSROY-UHFFFAOYSA-N
Temperature: 77 K
Tabular data in the source: 0
pressure (bar)	uptake (mmol/g)
1.07e-07	0.61426
2.48e-07	1.42703
5.99e-07	2.20048
1.26e-06	2.52821
3.87e-06	2.8035
1.58e-05	3.09191
4.1e-05	3.39342
0.000141	3.86535
0.000536	4.45527
0.00159722	4.87476
0.00428153	5.17628
0.0132133	5.37291
0.0469461	5.50401
0.732049	5.54333
