Adsorption isotherm of Argon on Zeolite MFI
DOI: 10.1080/08927020802660614
Adsorbate Argon: InChIKey XKRFYHLGVUSROY-UHFFFAOYSA-N
Temperature: 77 K
Tabular data in the source: 0
pressure (bar)	uptake (mmol/g)
4.68e-07	0.102999
1.13e-06	0.220982
2.54e-06	0.404512
5.91e-06	0.745352
1.24e-05	1.20418
3.09e-05	1.93829
8.59e-05	2.84283
0.000256	3.69493
0.000575	4.25863
0.00133935	4.73056
0.00334611	5.09762
0.0106966	5.37291
0.125845	5.54333
0.842785	5.54333
