Adsorption isotherm of Argon on Zeolite CAN
DOI: 10.1080/08927020802660614
Adsorbate Argon: InChIKey XKRFYHLGVUSROY-UHFFFAOYSA-N
Temperature: 77 K
Tabular data in the source: 0
pressure (bar)	uptake (mmol/g)
1.03e-07	0.640478
1.57e-07	0.9551
2.48e-07	1.3877
3.93e-07	1.82031
9.14e-07	2.3709
1.5e-06	2.60686
4.01e-06	2.79039
1.53e-05	3.03947
3.82e-05	3.44586
0.000102	4.00955
0.000215	4.41594
0.000617	4.6388
0.00243721	4.80922
0.00996915	4.97964
0.0393667	5.2156
0.161025	5.42535
0.970272	5.54333
