Adsorption isotherm of Nitrogen on COF-HQ with HCl (pH = 1)
DOI: 10.1021/acsami.8b05484
Article source: Figure 1H
Adsorbate Nitrogen: InChIKey IJGRMHOSHXDMSA-UHFFFAOYSA-N
Kind: experiment
Temperature: 77 K
Tabular data in the source: 0
pressure (bar)	uptake ()
0.000894	0
0.000894	4.32709
0.002315	10.809
0.002315	17.2909
0.003736	25.9334
0.006578	33.4956
0.013683	39.9775
0.020788	44.2988
0.030735	50.7807
0.040682	56.1823
0.05205	57.8027
0.061997	60.5035
0.069102	61.5838
0.08047	62.6642
0.088996	64.8248
0.103206	66.9854
0.113863	69.146
0.130205	71.3067
0.15152	72.387
0.175677	75.6279
0.204097	76.7083
0.255253	81.0295
0.304988	85.3508
0.357565	86.4311
0.405879	89.6721
0.455615	92.913
0.506771	97.2343
0.557927	98.3146
0.609083	101.556
0.660239	104.796
0.708553	108.037
0.759709	115.6
0.809444	123.162
0.859179	133.965
0.910335	159.893
0.961491	223.631
1.00128	418.088
0.96007	289.531
0.911756	192.302
0.862021	157.732
0.809444	143.688
0.758288	136.126
0.709974	129.644
0.655976	121.001
0.606241	118.3
0.556506	114.519
0.506771	112.359
0.455615	105.877
0.404458	102.636
0.353302	101.556
0.302146	98.3146
0.252411	95.0736
0.204097	90.7524
0.150099	85.3508
0.100364	77.7886
0.087575	76.7083
0.069102	74.5476
0.053471	69.146
0.032156	61.5838
0.01013	45.9193
