Adsorption isotherm of Nitrogen on COF-HQ with H2O (373.15 K)
DOI: 10.1021/acsami.8b05484
Article source: Figure 1H
Adsorbate Nitrogen: InChIKey IJGRMHOSHXDMSA-UHFFFAOYSA-N
Kind: experiment
Temperature: 77 K
Tabular data in the source: 0
pressure (bar)	uptake ()
0.000183	0.005822
0.000894	5.4074
0.000894	14.5901
0.000894	21.6121
0.000894	29.1744
0.005157	36.7366
0.012262	43.2185
0.022209	49.7004
0.030735	52.9413
0.040682	59.4232
0.050629	61.5838
0.063418	66.9854
0.069102	70.2264
0.081891	73.4673
0.09468	73.4673
0.101785	73.4673
0.113153	77.7886
0.134468	79.9492
0.152941	83.1902
0.175677	88.5917
0.204097	89.6721
0.25099	93.9933
0.302146	98.3146
0.353302	100.475
0.404458	103.716
0.455615	109.118
0.503929	113.439
0.557927	115.6
0.60482	119.921
0.655976	125.322
0.709974	129.644
0.76042	136.126
0.810865	146.929
0.8606	159.893
0.911756	187.981
0.961491	262.523
1.00128	520.718
0.961491	340.305
0.910335	220.39
0.862021	177.178
0.810865	158.272
0.76042	146.929
0.705711	138.286
0.657397	132.885
0.607662	127.483
0.556506	124.242
0.50535	119.921
0.454904	115.6
0.403037	111.278
0.353302	108.037
0.302146	104.796
0.253832	101.556
0.201255	96.154
0.150099	92.913
0.101785	84.2705
0.088996	82.1098
0.071944	77.7886
0.05205	71.3067
0.030735	63.7445
0.010841	47.5397
