Adsorption isotherm of Nitrogen on COF-HQ
DOI: 10.1021/acsami.8b05484
Article source: Figure 1H
Adsorbate Nitrogen: InChIKey IJGRMHOSHXDMSA-UHFFFAOYSA-N
Kind: experiment
Temperature: 77 K
Tabular data in the source: 0
pressure (bar)	uptake (cm3(STP)/g)
0.000894	0
0.000894	7.56803
0.003736	16.2106
0.003736	24.8531
0.006578	32.4153
0.010841	38.8972
0.019367	44.2988
0.029314	48.62
0.040682	51.861
0.050629	57.2626
0.060576	59.4232
0.070523	62.6642
0.079049	64.8248
0.087575	65.9051
0.097522	68.0657
0.113153	69.146
0.130205	72.387
0.148678	76.7083
0.177098	78.8689
0.204097	82.1098
0.25099	84.2705
0.304988	87.5114
0.354723	90.7524
0.403037	95.0736
0.455615	98.8547
0.50535	102.636
0.557927	105.877
0.609083	109.118
0.657397	113.439
0.708553	121.001
0.759709	126.403
0.810865	133.965
0.859179	146.929
0.913177	177.178
0.958649	248.479
1.00128	466.162
0.964333	317.619
0.911756	206.346
0.8606	164.214
0.809444	146.929
0.756867	136.126
0.709974	126.403
0.658818	121.001
0.609083	116.68
0.557927	111.278
0.506771	108.037
0.455615	103.716
0.404458	101.556
0.354723	97.2343
0.304988	95.0736
0.252411	91.2925
0.201255	89.6721
0.152941	82.1098
0.103206	75.6279
0.088996	73.4673
0.073365	71.3067
0.05205	66.9854
0.034998	57.2626
0.00942	46.9996
