Adsorption isotherm of Nitrogen on COF-HQ with NaOH (10 M)
DOI: 10.1021/acsami.8b05484
Article source: Figure 1H
Adsorbate Nitrogen: InChIKey IJGRMHOSHXDMSA-UHFFFAOYSA-N
Kind: experiment
Temperature: 77 K
Tabular data in the source: 0
pressure (bar)	uptake ()
0.000894	0.005822
0.000894	7.56803
0.000894	15.1302
0.000894	22.6925
0.000894	29.1744
0.002315	38.8972
0.006578	47.5397
0.010841	56.1823
0.020788	60.5035
0.027893	65.9051
0.03784	72.387
0.05205	79.9492
0.060576	82.1098
0.069102	88.5917
0.08047	89.6721
0.09468	95.0736
0.101785	95.0736
0.110311	95.0736
0.131626	98.3146
0.152941	101.556
0.178519	104.796
0.202676	106.957
0.255253	112.359
0.303567	117.76
0.351881	121.001
0.404458	123.162
0.455615	127.483
0.502508	130.724
0.555085	135.045
0.611925	140.447
0.657397	144.768
0.707132	152.33
0.758288	159.893
0.809444	169.615
0.859179	184.2
0.910335	212.828
0.961491	297.093
0.997016	538.003
0.961491	371.635
0.910335	250.639
0.859179	203.105
0.806602	181.499
0.756867	170.696
0.709974	163.134
0.655976	155.571
0.607662	150.17
0.557927	148.009
0.506771	143.688
0.454194	138.286
0.404458	132.885
0.353302	129.644
0.303567	127.483
0.253832	123.162
0.204097	121.001
0.150099	113.439
0.103206	108.037
0.091838	104.796
0.073365	100.475
0.049208	92.913
0.030735	82.1098
0.008709	63.2043
