Adsorption isotherm of Nitrogen on COF-HQ with H2O (298.15 K)
DOI: 10.1021/acsami.8b05484
Article source: Figure 1H
Adsorbate Nitrogen: InChIKey IJGRMHOSHXDMSA-UHFFFAOYSA-N
Kind: experiment
Temperature: 77 K
Tabular data in the source: 0
pressure (bar)	uptake ()
0.000894	0
0.000894	3.24677
0.000894	8.64835
0.000894	14.0499
0.000894	22.6925
0.003736	28.094
0.006578	36.7366
0.016525	45.3791
0.02363	49.7004
0.030735	52.9413
0.040682	56.1823
0.05205	59.4232
0.061997	61.5838
0.070523	63.7445
0.08047	66.9854
0.091838	69.146
0.103206	72.387
0.114574	72.387
0.133047	75.6279
0.15152	78.8689
0.177098	81.0295
0.204097	84.2705
0.252411	87.5114
0.302146	91.8327
0.353302	95.0736
0.404458	97.2343
0.455615	100.475
0.503929	104.796
0.553664	106.957
0.609083	112.359
0.657397	116.68
0.705711	119.921
0.756867	129.644
0.809444	135.045
0.859179	149.089
0.910335	177.178
0.962202	252.8
0.999858	469.943
0.958649	319.779
0.910335	212.828
0.8606	169.615
0.806602	151.25
0.758288	141.527
0.708553	129.644
0.658818	124.242
0.609083	119.921
0.556506	116.68
0.506771	112.359
0.452773	109.118
0.404458	106.957
0.353302	103.716
0.303567	100.475
0.252411	97.2343
0.201255	93.9933
0.15152	88.5917
0.103206	81.0295
0.088996	77.7886
0.071944	73.4673
0.05205	68.0657
0.033577	59.4232
0.010841	46.4594
