Adsorption isotherm of Carbon Dioxide, Water on Na-ZSM-5
DOI: 10.1021/acs.jpcc.6b09224
Article source: Figure 4
Adsorbate Carbon Dioxide: InChIKey CURLTUGMZLYLDI-UHFFFAOYSA-N
Adsorbate Water: InChIKey XLYOFNOQVPJJNP-UHFFFAOYSA-N
Kind: experiment
Temperature: 323 K
Tabular data in the source: 0
pressure (bar)	Carbon Dioxide fraction	Carbon Dioxide uptake (mmol/g)	Water fraction	Water uptake (mmol/g)	total uptake (mmol/g)
1.013	0.99751	0.826	0.00249	0.604	
1.013	0.99629	0.815	0.00371	0.782	
1.013	0.99504	0.803	0.00496	0.918	
1.013	0.99256	0.789	0.00744	1.08	
1.013	0.9874	0.777	0.0126	1.29	
1.013	0.9838	0.768	0.0162	1.4	
1.013	0.9816	0.76	0.0184	1.45	
1.013	0.9792	0.751	0.0208	1.51	
