Adsorption isotherm of Methane, Water on Na-ZSM-5
DOI: 10.1021/acs.jpcc.6b09224
Article source: Figure 2
Adsorbate Methane: InChIKey VNWKTOKETHGBQD-UHFFFAOYSA-N
Adsorbate Water: InChIKey XLYOFNOQVPJJNP-UHFFFAOYSA-N
Kind: experiment
Temperature: 393 K
Tabular data in the source: 0
pressure (bar)	Methane fraction	Methane uptake (mmol/g)	Water fraction	Water uptake (mmol/g)	total uptake (mmol/g)
1.013	0.99751	0.0111	0.00249	0.227	
1.013	0.9963	0.00722	0.0037	0.262	
1.013	0.99502	0.00309	0.00498	0.287	
1.013	0.99253	0.000878	0.00747	0.322	
1.013	0.9874	9e-05	0.0126	0.372	
1.013	0.9838	0.000288	0.0162	0.394	
1.013	0.9816	0.000504	0.0184	0.41	
1.013	0.9793	0.000233	0.0207	0.419	
