Adsorption isotherm of Methane, Water on Na-ZSM-5
DOI: 10.1021/acs.jpcc.6b09224
Article source: Figure 2
Adsorbate Methane: InChIKey VNWKTOKETHGBQD-UHFFFAOYSA-N
Adsorbate Water: InChIKey XLYOFNOQVPJJNP-UHFFFAOYSA-N
Kind: experiment
Temperature: 323 K
Tabular data in the source: 0
pressure (bar)	Methane fraction	Methane uptake (mmol/g)	Water fraction	Water uptake (mmol/g)	total uptake (mmol/g)
1.013	0.99751	0.126	0.00249	0.816	
1.013	0.9963	0.109	0.0037	0.954	
1.013	0.99502	0.101	0.00498	1.05	
1.013	0.99253	0.0975	0.00747	1.23	
1.013	0.9874	0.0872	0.0126	1.46	
1.013	0.9838	0.079	0.0162	1.59	
1.013	0.9816	0.0702	0.0184	1.65	
1.013	0.9793	0.0632	0.0207	1.71	
