Adsorption isotherm of Carbon Dioxide, Water on Na-ZSM-5
DOI: 10.1021/acs.jpcc.6b09224
Article source: Figure 4
Adsorbate Carbon Dioxide: InChIKey CURLTUGMZLYLDI-UHFFFAOYSA-N
Adsorbate Water: InChIKey XLYOFNOQVPJJNP-UHFFFAOYSA-N
Kind: experiment
Temperature: 308 K
Tabular data in the source: 0
pressure (bar)	Carbon Dioxide fraction	Carbon Dioxide uptake (mmol/g)	Water fraction	Water uptake (mmol/g)	total uptake (mmol/g)
1.013	0.99751	1.2	0.00249	0.963	
1.013	0.99629	1.18	0.00371	1.09	
1.013	0.99504	1.16	0.00496	1.19	
1.013	0.99256	1.15	0.00744	1.4	
1.013	0.9874	1.12	0.0126	1.72	
1.013	0.9838	1.1	0.0162	1.89	
1.013	0.9816	1.09	0.0184	2.01	
1.013	0.9792	1.08	0.0208	2.13	
