Adsorption isotherm of Carbon Dioxide, Water on Na-ZSM-5
DOI: 10.1021/acs.jpcc.6b09224
Article source: Figure 4
Adsorbate Carbon Dioxide: InChIKey CURLTUGMZLYLDI-UHFFFAOYSA-N
Adsorbate Water: InChIKey XLYOFNOQVPJJNP-UHFFFAOYSA-N
Kind: experiment
Temperature: 358 K
Tabular data in the source: 0
pressure (bar)	Carbon Dioxide fraction	Carbon Dioxide uptake (mmol/g)	Water fraction	Water uptake (mmol/g)	total uptake (mmol/g)
1.013	0.99751	0.375	0.00249	0.273	
1.013	0.99629	0.363	0.00371	0.358	
1.013	0.99504	0.357	0.00496	0.412	
1.013	0.99256	0.349	0.00744	0.483	
1.013	0.9874	0.343	0.0126	0.593	
1.013	0.9838	0.34	0.0162	0.647	
1.013	0.9816	0.337	0.0184	0.69	
1.013	0.9792	0.332	0.0208	0.725	
