Adsorption isotherm of Methane, Water on Na-ZSM-5
DOI: 10.1021/acs.jpcc.6b09224
Article source: Figure 2
Adsorbate Methane: InChIKey VNWKTOKETHGBQD-UHFFFAOYSA-N
Adsorbate Water: InChIKey XLYOFNOQVPJJNP-UHFFFAOYSA-N
Kind: experiment
Temperature: 308 K
Tabular data in the source: 0
pressure (bar)	Methane fraction	Methane uptake (mmol/g)	Water fraction	Water uptake (mmol/g)	total uptake (mmol/g)
1.013	0.99751	0.144	0.00249	1.12	
1.013	0.9963	0.133	0.0037	1.26	
1.013	0.99502	0.126	0.00498	1.37	
1.013	0.99253	0.12	0.00747	1.6	
1.013	0.9874	0.112	0.0126	1.96	
1.013	0.9838	0.105	0.0162	2.16	
1.013	0.9816	0.096	0.0184	2.32	
1.013	0.9793	0.087	0.0207	2.48	
