Adsorption isotherm of Methane, Water on Na-ZSM-5
DOI: 10.1021/acs.jpcc.6b09224
Article source: Figure 2
Adsorbate Methane: InChIKey VNWKTOKETHGBQD-UHFFFAOYSA-N
Adsorbate Water: InChIKey XLYOFNOQVPJJNP-UHFFFAOYSA-N
Kind: experiment
Temperature: 358 K
Tabular data in the source: 0
pressure (bar)	Methane fraction	Methane uptake (mmol/g)	Water fraction	Water uptake (mmol/g)	total uptake (mmol/g)
1.013	0.99751	0.028	0.00249	0.339	
1.013	0.9963	0.02	0.0037	0.424	
1.013	0.99502	0.0147	0.00498	0.473	
1.013	0.99253	0.0118	0.00747	0.536	
1.013	0.9874	0.00493	0.0126	0.628	
1.013	0.9838	0.00053	0.0162	0.675	
1.013	0.9816	0.000746	0.0184	0.704	
1.013	0.9793	0.000475	0.0207	0.729	
