Adsorption isotherm of Carbon Dioxide, Water on Na-ZSM-5
DOI: 10.1021/acs.jpcc.6b09224
Article source: Figure 4
Adsorbate Carbon Dioxide: InChIKey CURLTUGMZLYLDI-UHFFFAOYSA-N
Adsorbate Water: InChIKey XLYOFNOQVPJJNP-UHFFFAOYSA-N
Kind: experiment
Temperature: 393 K
Tabular data in the source: 0
pressure (bar)	Carbon Dioxide fraction	Carbon Dioxide uptake (mmol/g)	Water fraction	Water uptake (mmol/g)	total uptake (mmol/g)
1.013	0.99751	0.148	0.00249	0.145	
1.013	0.99629	0.142	0.00371	0.174	
1.013	0.99504	0.142	0.00496	0.199	
1.013	0.99256	0.139	0.00744	0.234	
1.013	0.9874	0.136	0.0126	0.279	
1.013	0.9838	0.136	0.0162	0.316	
1.013	0.9816	0.136	0.0184	0.329	
1.013	0.9792	0.134	0.0208	0.345	
