Adsorption isotherm of Nitrogen on TPE-TAP-COF
DOI: 10.1039/c8tb02870b
Article source: Figure S2
Adsorbate Nitrogen: InChIKey IJGRMHOSHXDMSA-UHFFFAOYSA-N
Kind: experiment
Temperature: 77 K
Tabular data in the source: 0
pressure (bar)	uptake (cm3(STP)/g)
0.007705	7.57741
0.007705	9.85428
0.007705	12.985
0.007705	20.954
0.005727	22.9463
0.00375	27.2154
0.00375	31.4845
0.00375	37.7459
0.009683	41.4458
0.047258	47.4226
0.065057	49.1302
0.090766	50.2687
0.17976	53.3994
0.235134	54.2532
0.278642	57.0993
0.326106	57.9531
0.373569	58.2377
0.428943	59.6607
0.484317	61.3684
0.535736	62.5068
0.587155	64.4991
0.630663	66.2067
0.680104	67.6298
0.731523	69.3374
0.782941	71.8989
0.836338	74.4604
0.864025	79.2987
0.919399	85.8447
0.966862	103.206
0.9016	87.837
0.850181	81.5756
0.80074	77.3065
0.75921	75.3142
0.697903	73.3219
0.707791	73.8912
0.642529	71.8989
0.589132	71.3297
0.543647	69.9066
0.49025	69.0528
0.450697	68.199
0.393346	67.3452
0.349837	66.2067
0.296441	65.0683
0.25491	63.6453
0.183715	62.2222
0.140207	61.653
0.082855	59.0915
