Adsorption isotherm of Carbon Dioxide on CPO-27â€“Ni
DOI: 10.1007/s10450-019-00162-x
Article source: Figure 2
Adsorbate Carbon Dioxide: InChIKey CURLTUGMZLYLDI-UHFFFAOYSA-N
Kind: experiment
Temperature: 283 K
Tabular data in the source: 0
pressure (bar)	uptake (mmol/g)
0.005058	1
0.007112	1.3815
0.010084	1.88302
0.02044	3.09905
0.029712	3.76724
0.040748	4.33937
0.049745	4.64159
0.059727	4.89845
0.069946	5.13483
0.080563	5.275
0.090506	5.38263
0.1	5.52955
0.100122	5.47937
0.1221	5.65861
0.151404	5.86344
0.201465	6.15789
0.252747	6.37553
0.302808	6.55477
0.404151	6.88762
0.505494	7.16927
0.606838	7.42532
0.708181	7.66856
0.809524	7.8862
0.910867	8.09104
1.0061	8.29587
