Adsorption isotherm of Nitrogen on CPO-27â€“Ni
DOI: 10.1007/s10450-019-00162-x
Article source: Figure 3
Adsorbate Nitrogen: InChIKey IJGRMHOSHXDMSA-UHFFFAOYSA-N
Kind: experiment
Temperature: 283 K
Tabular data in the source: 0
pressure (bar)	uptake (mmol/g)
0.005177	0.00914
0.007135	0.01258
0.010237	0.01874
0.02107	0.03918
0.02943	0.05499
0.040024	0.07415
0.050236	0.09419
0.058977	0.11271
0.069703	0.12958
0.080206	0.15199
0.089259	0.16792
0.098015	0.18186
0.151268	0.27848
0.200181	0.36709
0.30163	0.53797
0.402174	0.71203
0.504529	0.87342
0.605978	1.03165
0.707427	1.18038
0.808877	1.32278
0.90942	1.45886
1.00634	1.58861
