Adsorption isotherm of Nitrogen on CPO-27â€“Ni
DOI: 10.1007/s10450-019-00162-x
Article source: Figure 3
Adsorbate Nitrogen: InChIKey IJGRMHOSHXDMSA-UHFFFAOYSA-N
Kind: experiment
Temperature: 273 K
Tabular data in the source: 0
pressure (bar)	uptake (mmol/g)
0.003157	0.00764
0.005212	0.01309
0.010237	0.02604
0.020514	0.05284
0.027528	0.07197
0.03794	0.1
0.048261	0.12452
0.058977	0.15199
0.068319	0.17827
0.07757	0.20294
0.086905	0.22645
0.096713	0.25019
0.196558	0.48734
0.298007	0.71203
0.399456	0.92405
0.500906	1.11709
0.602355	1.29747
0.703804	1.47152
0.805254	1.63291
0.908515	1.78481
1.00272	1.91139
