Adsorption isotherm of Carbon Dioxide on CPO-27â€“Ni
DOI: 10.1007/s10450-019-00162-x
Article source: Figure 2
Adsorbate Carbon Dioxide: InChIKey CURLTUGMZLYLDI-UHFFFAOYSA-N
Kind: experiment
Temperature: 308 K
Tabular data in the source: 0
pressure (bar)	uptake (mmol/g)
0.003149	0.1458
0.005186	0.22282
0.007171	0.34515
0.010168	0.49315
0.02044	0.97343
0.029712	1.36302
0.039745	1.78428
0.049745	2.15443
0.059727	2.48163
0.069946	2.76389
0.079896	3.0167
0.092023	3.27054
0.100835	3.45153
0.120879	3.78947
0.151404	4.19915
0.201465	4.68563
0.302808	5.28734
0.404151	5.65861
0.505494	5.92745
0.606838	6.15789
0.708181	6.33713
0.808303	6.49075
0.910867	6.64438
1.0061	6.78521
