Adsorption isotherm of Carbon Dioxide on CPO-27â€“Ni
DOI: 10.1007/s10450-019-00162-x
Article source: Figure 3
Adsorbate Carbon Dioxide: InChIKey CURLTUGMZLYLDI-UHFFFAOYSA-N
Kind: experiment
Temperature: 263 K
Tabular data in the source: 0
pressure (bar)	uptake (mmol/g)
0.003609	0.01051
0.005685	0.01598
0.010799	0.0334
0.021353	0.07125
0.028274	0.09803
0.038195	0.13219
0.048261	0.16461
0.058194	0.20092
0.067864	0.23566
0.07603	0.26561
0.086905	0.30236
0.098015	0.34419
0.196558	0.67089
0.298007	0.96835
0.401268	1.25949
0.502717	1.5
0.605073	1.72785
0.703804	1.92722
0.807971	2.11392
0.907609	2.28481
1.00362	2.43354
