Adsorption isotherm of Carbon Dioxide on CPO-27â€“Ni
DOI: 10.1007/s10450-019-00162-x
Article source: Figure 2
Adsorbate Carbon Dioxide: InChIKey CURLTUGMZLYLDI-UHFFFAOYSA-N
Kind: experiment
Temperature: 323 K
Tabular data in the source: 0
pressure (bar)	uptake (mmol/g)
0.007112	0.17136
0.010252	0.25666
0.029222	0.73366
0.049745	1.19131
0.07053	1.62378
0.090506	2.01416
0.100835	2.21324
0.151404	2.93172
0.202686	3.48222
0.252747	3.90469
0.302808	4.23755
0.405372	4.73684
0.505494	5.09531
0.606838	5.35135
0.709402	5.55619
0.810745	5.74822
0.910867	5.90185
1.00733	6.04267
