Adsorption isotherm of Carbon Dioxide on F5N5-CMS
DOI: 10.1016/j.ijggc.2012.06.013
Adsorbate Carbon Dioxide: InChIKey CURLTUGMZLYLDI-UHFFFAOYSA-N
Temperature: 273 K
Tabular data in the source: 0
pressure (bar)	uptake (mmol/g)
0.00512778	0.110416
0.0410223	0.572292
0.0794806	0.863624
0.110247	1.05455
0.143578	1.19533
0.182036	1.33616
0.217931	1.4569
0.253825	1.54754
0.28972	1.63818
0.328178	1.71881
0.364073	1.79941
0.399967	1.86998
0.438425	1.93055
0.471756	1.99106
0.510214	2.04159
0.543545	2.09207
0.57944	2.14257
0.615334	2.19308
0.653792	2.23358
0.687123	2.27402
0.725581	2.31452
0.756348	2.34491
0.794806	2.3854
0.830701	2.41584
0.869159	2.45634
0.90249	2.47672
0.940948	2.51721
0.974279	2.54763
1.01274	2.56806
1.04863	2.59849
