Adsorption isotherm of Carbon Dioxide on F3N7-CMS
DOI: 10.1016/j.ijggc.2012.06.013
Adsorbate Carbon Dioxide: InChIKey CURLTUGMZLYLDI-UHFFFAOYSA-N
Temperature: 273 K
Tabular data in the source: 0
pressure (bar)	uptake (mmol/g)
0.00512778	0.0903492
0.0358945	0.612378
0.0820445	0.893748
0.110247	1.07462
0.141014	1.24547
0.176909	1.39631
0.215367	1.50704
0.251261	1.62778
0.292284	1.70844
0.366637	1.85964
0.399967	1.93018
0.435862	1.98069
0.471756	2.05126
0.543545	2.1623
0.617898	2.27337
0.651228	2.29375
0.687123	2.34426
0.725581	2.37472
0.828137	2.47602
0.866595	2.51651
0.90249	2.53692
0.976843	2.59782
1.0512	2.63865
