Adsorption isotherm of Carbon Dioxide on F1N9-CMS
DOI: 10.1016/j.ijggc.2012.06.013
Adsorbate Carbon Dioxide: InChIKey CURLTUGMZLYLDI-UHFFFAOYSA-N
Temperature: 273 K
Tabular data in the source: 0
pressure (bar)	uptake (mmol/g)
0.00769168	0.160607
0.0384584	0.612402
0.0769168	0.9238
0.110247	1.08465
0.146142	1.24552
0.251261	1.61775
0.292284	1.70844
0.32305	1.77896
0.399967	1.93018
0.433298	2.00073
0.469192	2.06127
0.507651	2.1118
0.540981	2.16228
0.617898	2.2533
0.689687	2.34428
0.756348	2.40511
0.869159	2.52657
0.976843	2.60785
1.04607	2.64864
