Adsorption isotherm of Carbon Dioxide on F1N9-CMS
DOI: 10.1016/j.ijggc.2012.06.013
Adsorbate Carbon Dioxide: InChIKey CURLTUGMZLYLDI-UHFFFAOYSA-N
Temperature: 298 K
Tabular data in the source: 0
pressure (bar)	uptake (mmol/g)
0.00783951	0.0316787
0.0312438	0.21367
0.0546793	0.371947
0.0781563	0.498603
0.109525	0.617413
0.138297	0.712487
0.164453	0.799638
0.19062	0.878883
0.219434	0.942338
0.245631	0.997868
0.274445	1.06132
0.300632	1.12476
0.329467	1.1724
0.355665	1.22793
0.38452	1.25977
0.410728	1.30739
0.436957	1.33921
0.463165	1.38683
0.518228	1.46629
0.544467	1.4902
0.575929	1.53787
0.604795	1.56179
0.628397	1.59359
0.654625	1.62541
0.683481	1.65724
0.707093	1.68113
0.738586	1.70508
0.762208	1.72106
0.793702	1.74501
0.822557	1.77685
0.843542	1.80072
0.875046	1.81676
0.898658	1.84065
0.930151	1.8646
0.95639	1.88851
0.982629	1.91242
1.00888	1.92843
1.03774	1.95236
1.06399	1.96836
