Adsorption isotherm of Carbon Dioxide on F5N5-CMS
DOI: 10.1016/j.ijggc.2012.06.013
Adsorbate Carbon Dioxide: InChIKey CURLTUGMZLYLDI-UHFFFAOYSA-N
Temperature: 273 K
Tabular data in the source: 0
pressure (bar)	uptake (mmol/g)
0.00256389	0.0802917
0.0384584	0.602368
0.0743529	0.883643
0.112811	1.10474
0.143578	1.25553
0.182036	1.39636
0.220495	1.52716
0.253825	1.62781
0.292284	1.7285
0.364073	1.87968
0.399967	1.94022
0.433298	2.01077
0.471756	2.06129
0.507651	2.1118
0.543545	2.1623
0.576876	2.22282
0.615334	2.26331
0.651228	2.31382
0.687123	2.35429
0.720454	2.39474
0.758912	2.41517
0.792243	2.44558
0.833265	2.4861
0.869159	2.5065
0.905054	2.55701
0.938384	2.57739
0.976843	2.60785
1.0153	2.63831
1.04863	2.64866
