Adsorption isotherm of Carbon Dioxide on Raw-CMS
DOI: 10.1016/j.ijggc.2012.06.013
Adsorbate Carbon Dioxide: InChIKey CURLTUGMZLYLDI-UHFFFAOYSA-N
Temperature: 298 K
Tabular data in the source: 0
pressure (bar)	uptake (mmol/g)
0.0286168	0.213651
0.0547416	0.324516
0.0835038	0.427496
0.109639	0.530457
0.135816	0.601797
0.16463	0.665252
0.193454	0.720801
0.222258	0.792161
0.243222	0.831842
0.272047	0.887392
0.300892	0.927131
0.32711	0.966851
0.355966	0.998686
0.382174	1.04631
0.411019	1.08605
0.439885	1.10998
0.466103	1.1497
0.489705	1.1815
0.515954	1.1975
0.544789	1.24514
0.573666	1.26117
0.597278	1.28506
0.62876	1.31691
0.652383	1.3329
0.686503	1.35687
0.707488	1.38074
0.736354	1.40467
0.762603	1.42067
0.791469	1.4446
0.820346	1.46063
0.846585	1.48454
0.875461	1.50056
0.899083	1.51655
0.927949	1.54047
0.956826	1.5565
0.983065	1.58041
1.00931	1.59641
1.0382	1.60453
1.06707	1.62846
