Adsorption isotherm of Carbon Dioxide on F5N5-CMS
DOI: 10.1016/j.ijggc.2012.06.013
Adsorbate Carbon Dioxide: InChIKey CURLTUGMZLYLDI-UHFFFAOYSA-N
Temperature: 298 K
Tabular data in the source: 0
pressure (bar)	uptake (mmol/g)
0.00263353	0.0395452
0.0263353	0.229444
0.0579376	0.435212
0.0869064	0.561909
0.107975	0.649022
0.13431	0.744078
0.163279	0.83125
0.192248	0.918421
0.218583	0.981857
0.244918	1.04529
0.273887	1.10875
0.302856	1.1643
0.329191	1.21983
0.350259	1.26742
0.384495	1.3151
0.41083	1.36273
0.437166	1.39454
0.463501	1.43427
0.49247	1.48982
0.518805	1.51373
0.571476	1.58526
0.62678	1.65682
0.653115	1.68073
0.684717	1.70468
0.711053	1.7365
0.737388	1.76041
0.763723	1.80013
0.795326	1.82408
0.821661	1.84799
0.874331	1.90371
0.9033	1.91974
0.929635	1.95155
0.958604	1.96758
0.98494	1.98358
1.01127	2.0154
1.04024	2.02352
1.06395	2.05532
