Adsorption isotherm of Carbon Dioxide on F3N7-CMS
DOI: 10.1016/j.ijggc.2012.06.013
Adsorbate Carbon Dioxide: InChIKey CURLTUGMZLYLDI-UHFFFAOYSA-N
Temperature: 298 K
Tabular data in the source: 0
pressure (bar)	uptake (mmol/g)
0.00263353	0.0237349
0.0263353	0.229444
0.0526706	0.395647
0.0763723	0.506495
0.110608	0.641136
0.13431	0.759889
0.163279	0.839155
0.186981	0.910477
0.218583	0.973952
0.244918	1.03739
0.300222	1.14847
0.331825	1.18823
0.350259	1.25161
0.381862	1.29137
0.405563	1.33897
0.431899	1.3787
0.466135	1.41847
0.49247	1.4661
0.516172	1.51371
0.54514	1.54554
0.576743	1.56949
0.597811	1.59336
0.629413	1.63312
0.655749	1.65703
0.682084	1.68885
0.708419	1.72067
0.737388	1.7525
0.766357	1.77643
0.792692	1.81615
0.821661	1.84008
0.847996	1.86399
0.953337	1.95963
0.98494	1.97568
1.01127	1.99168
1.06395	2.03951
