Adsorption isotherm of Nitrogen on C42H41O21.5Zn4[Zn4O(C14H12O6)3*2.5H2O][Zn4O(L2)3*2.5H2O]
DOI: 10.1039/C4ce01377h
Adsorbate Nitrogen: InChIKey IJGRMHOSHXDMSA-UHFFFAOYSA-N
Temperature: 77 K
Tabular data in the source: 0
pressure (bar)	uptake (cm3(STP)/g)
-0.00430829	137.879
-0.00215414	137.879
-0.00215414	272.734
-0.00215414	283.337
0	283.337
0.00430829	328.781
0.0107708	339.377
0.0172332	345.428
0.0280039	348.441
0.0387746	354.485
0.0495454	357.498
0.0560078	359.004
0.0667785	360.502
0.0775492	362
0.08832	365.014
0.0990912	363.482
0.116324	366.485
0.142173	370.99
0.193874	373.94
0.23911	375.385
0.29081	376.819
0.336047	378.264
0.385592	379.702
0.428675	381.15
0.484683	381.062
0.532074	427.958
0.58162	383.941
0.626857	427.81
0.68071	383.787
0.725947	430.686
0.777646	388.181
0.822884	432.05
0.827192	389.619
0.874584	391.06
0.874584	431.969
0.915512	434.936
0.924129	394.013
0.94567	437.919
0.947825	404.582
0.96075	439.411
0.967211	440.916
