Adsorption isotherm of Nitrogen on C42H38O20Zn4|[Zn4O(C14H12O6)3*H2O]|[Zn4O(L1)3*H2O]
DOI: 10.1039/C4ce01377h
Adsorbate Nitrogen: InChIKey IJGRMHOSHXDMSA-UHFFFAOYSA-N
Temperature: 77 K
Tabular data in the source: 0
pressure (bar)	uptake (cm3(STP)/g)
-0.00430829	106.064
-0.00215414	106.064
-0.00215414	168.182
0	168.182
0	233.34
0.00646243	260.596
0.0129249	269.677
0.0258497	277.232
0.0366205	278.731
0.0473912	281.744
0.058162	281.727
0.073241	284.734
0.0818576	286.236
0.0990912	286.209
0.116324	290.728
0.144328	292.199
0.196027	293.634
0.292964	296.513
0.3899	297.877
0.486837	299.241
0.585928	302.117
0.68071	301.969
0.777646	301.818
0.827192	303.255
0.876738	304.693
0.926283	304.616
0.949978	304.579
0.969366	304.549
