Adsorption isotherm of Carbon Dioxide on Bio-MOF-1
DOI: 10.1039/C2cc31821k
Adsorbate Carbon Dioxide: InChIKey CURLTUGMZLYLDI-UHFFFAOYSA-N
Temperature: 298 K
Tabular data in the source: 0
pressure (bar)	uptake (cm3(STP)/g)
0.000248761	0.465116
0.00201811	8.27907
0.00418471	14.0465
0.0088923	19.814
0.0130932	23.1628
0.0172082	25.8605
0.0213202	28.093
0.0254306	30.0465
0.0297869	32
0.033813	33.5814
0.0381687	35.4419
