Adsorption isotherm of Methane on Bio-MOF-1
DOI: 10.1039/C2cc31821k
Adsorbate Methane: InChIKey VNWKTOKETHGBQD-UHFFFAOYSA-N
Temperature: 298 K
Tabular data in the source: 0
pressure (bar)	uptake (cm3(STP)/g)
0.000248761	0.465116
0.001809	0.930233
0.00386504	2.04651
0.00591536	2.23256
0.010098	2.60465
0.0134598	2.7907
0.0160844	3.06977
0.0191184	3.25581
0.0256763	3.34884
0.0319081	3.72093
0.0377278	3.72093
