Adsorption isotherm of Nitrogen on PGMA-PEI(1800)hydrogel
DOI: 10.1021/acs.iecr.5b01305
Article source: Figure 3- PGMA PEI 1800 hydrogel
Adsorbate Nitrogen: InChIKey IJGRMHOSHXDMSA-UHFFFAOYSA-N
Kind: experiment
Temperature: 77 K
Tabular data in the source: 0
pressure (bar)	uptake (cm3(STP)/g)
0.0543	5.652
0.072528	6.698
0.073369	3.72
0.093077	7.125
0.111954	5.966
0.114284	8.326
0.136687	8.173
0.154267	8.136
0.1736	9.414
0.196388	8.449
0.215447	8.837
0.235155	9.883
0.255339	9.15
0.274023	9.654
0.293559	10.12
0.316712	11.282
0.324514	8.652
0.335213	11.438
0.354739	10.395
0.376129	11.209
0.399464	11.714
0.417135	12.76
0.437491	12.8
0.459063	12.028
0.473198	12.511
0.474971	12.919
0.499238	13.695
0.506767	11.451
0.519412	14.044
0.537914	14.51
0.558372	14.125
0.573348	11.611
0.580035	14.513
0.598729	14.747
0.60951	12.001
0.620302	15.174
0.6416	15.795
0.661683	15.603
0.677398	13.205
0.679718	16.61
0.69971	17.114
0.709842	13.595
0.71654	17.464
0.737839	17.852
0.760434	18.666
0.774468	16.501
0.780699	19.055
0.802737	20.14
0.809617	17.626
0.82357	21.302
0.843652	22.309
0.861131	23.626
0.871172	20.571
0.875549	24.943
0.904934	30.554
0.916363	26.454
0.92223	34.927
0.945008	45.104
0.954867	51.062
0.966489	41.778
0.98416	67.738
0.997464	72.924
