Adsorption isotherm of Carbon Dioxide on PGMA-PEI hydrogel
DOI: 10.1021/acs.iecr.5b01305
Article source: Figure 9a- 303 K
Adsorbate Carbon Dioxide: InChIKey CURLTUGMZLYLDI-UHFFFAOYSA-N
Kind: experiment
Temperature: 303 K
Tabular data in the source: 0
pressure (bar)	uptake (mmol/g)
0.02839	1.451
0.04042	1.7159
0.04443	1.9712
0.05504	2.3505
0.07757	2.6394
0.11873	3.1398
0.15609	3.4849
0.19237	3.6877
0.23244	4.0057
0.27998	4.2406
0.33445	4.3769
0.38653	4.4557
0.43515	4.4892
0.51074	4.5088
0.61685	4.516
0.73163	4.5173
0.84035	4.5296
0.92373	4.5273
1.01599	4.5404
