Adsorption isotherm of Carbon Dioxide on PGMA-PEI hydrogel
DOI: 10.1021/acs.iecr.5b01305
Article source: Figure 9a- 293 K
Adsorbate Carbon Dioxide: InChIKey CURLTUGMZLYLDI-UHFFFAOYSA-N
Kind: experiment
Temperature: 293 K
Tabular data in the source: 0
pressure (bar)	uptake (mmol/g)
0.03738	1.6819
0.03749	1.6874
0.0519	1.9588
0.08222	2.3177
0.11645	2.6029
0.15164	2.794
0.19572	3.0865
0.24965	3.3287
0.32317	3.5482
0.38641	3.7378
0.4398	3.8333
0.53011	3.9361
0.61674	4.006
0.73812	4.0562
0.83168	4.089
0.92275	4.1035
1.00093	4.1194
