Adsorption isotherm of Carbon Dioxide on PGMA-PEI hydrogel
DOI: 10.1021/acs.iecr.5b01305
Article source: Figure 9a- 343 K
Adsorbate Carbon Dioxide: InChIKey CURLTUGMZLYLDI-UHFFFAOYSA-N
Kind: experiment
Temperature: 343 K
Tabular data in the source: 0
pressure (bar)	uptake (mmol/g)
0.01419	0.1503
0.01538	0.3356
0.02091	0.6712
0.02741	1.0622
0.03164	1.2708
0.03446	1.5422
0.04572	1.7633
0.07356	2.0718
0.1094	2.3563
0.14471	2.6138
0.18391	2.821
0.22127	3.0033
0.27011	3.1638
0.3196	3.2688
0.36703	3.376
0.42442	3.4875
0.47228	3.5283
0.52404	3.5932
0.60406	3.6106
0.73444	3.6375
0.82096	3.66
0.90054	3.6716
1.00082	3.7021
