Adsorption isotherm of Carbon Dioxide on PEI MW600
DOI: 10.1021/acs.iecr.5b01305
Article source: Figure 4- PEI MW 600
Adsorbate Carbon Dioxide: InChIKey CURLTUGMZLYLDI-UHFFFAOYSA-N
Kind: experiment
Temperature: 313 K
Tabular data in the source: 0
pressure (bar)	uptake (mmol/g)
0.00125	0.0274
0.06618	1.3511
0.09633	1.7939
0.12883	2.2648
0.17085	2.7263
0.21678	3.1323
0.26652	3.3437
0.32244	3.5383
0.36632	3.6867
0.41044	3.7977
0.51507	3.8539
0.6026	3.8719
0.72917	3.8939
0.81717	3.8965
0.90493	3.9091
1.00042	3.9265
