Adsorption isotherm of Carbon Dioxide on PGMA-PEI hydrogel
DOI: 10.1021/acs.iecr.5b01305
Article source: Figure 9a- 333 K
Adsorbate Carbon Dioxide: InChIKey CURLTUGMZLYLDI-UHFFFAOYSA-N
Kind: experiment
Temperature: 333 K
Tabular data in the source: 0
pressure (bar)	uptake (mmol/g)
0.00791	0.0919
0.01072	0.2488
0.01722	0.4093
0.02502	0.6617
0.02589	0.9032
0.02958	1.1468
0.03164	1.381
0.03392	1.6568
0.04323	1.9019
0.05136	2.1339
0.07844	2.5679
0.10898	2.9757
0.14071	3.3631
0.18587	3.6614
0.22724	3.8634
0.28225	4.0188
0.3391	4.1325
0.38415	4.1711
0.43114	4.185
0.52632	4.2075
0.61501	4.2227
0.74798	4.2437
0.83461	4.2473
0.92048	4.2501
1.00765	4.258
