Adsorption isotherm of Carbon Dioxide on PGMA-PEI hydrogel
DOI: 10.1021/acs.iecr.5b01305
Article source: Figure 9a- 323 K
Adsorbate Carbon Dioxide: InChIKey CURLTUGMZLYLDI-UHFFFAOYSA-N
Kind: experiment
Temperature: 323 K
Tabular data in the source: 0
pressure (bar)	uptake (mmol/g)
0.00845	0.1131
0.01517	0.4348
0.01679	0.6894
0.01864	0.9491
0.02417	1.1921
0.02644	1.3992
0.0297	1.6969
0.03403	1.9719
0.04313	2.3345
0.06805	2.8131
0.10314	3.2062
0.14548	3.6505
0.18479	3.7519
0.22605	4.0064
0.27889	4.1479
0.34148	4.2638
0.37809	4.3433
0.43006	4.3987
0.53261	4.4876
0.61241	4.5072
0.74593	4.5428
0.83299	4.569
0.91377	4.5894
1.00787	4.6257
