Adsorption isotherm of Carbon Dioxide on PEI MW10000
DOI: 10.1021/acs.iecr.5b01305
Article source: Figure 4- PEI MW 10000
Adsorbate Carbon Dioxide: InChIKey CURLTUGMZLYLDI-UHFFFAOYSA-N
Kind: experiment
Temperature: 313 K
Tabular data in the source: 0
pressure (bar)	uptake (mmol/g)
0.00055	0.014
0.06711	2.7211
0.09702	3.0967
0.12842	3.5633
0.17128	3.8667
0.21703	4.1099
0.26738	4.2802
0.32248	4.4471
0.36783	4.5472
0.41162	4.6486
0.51518	4.7117
0.60361	4.7414
0.72933	4.7743
0.81721	4.8101
0.90618	4.7997
1.00108	4.8253
