Adsorption isotherm of Nitrogen on PGMA
DOI: 10.1021/acs.iecr.5b01305
Article source: Figure 3- PGMA
Adsorbate Nitrogen: InChIKey IJGRMHOSHXDMSA-UHFFFAOYSA-N
Kind: experiment
Temperature: 77 K
Tabular data in the source: 0
pressure (bar)	uptake (cm3(STP)/g)
0.017114	10.292
0.036082	13.311
0.061839	17.994
0.06807	15.132
0.091223	18.964
0.113352	21.286
0.117821	18.501
0.132138	24.576
0.145432	25.427
0.146182	25.467
0.168402	23.496
0.172769	26.204
0.192669	27.096
0.19732	25.703
0.212195	24.262
0.21257	24.273
0.259716	29.499
0.259899	29.522
0.30741	25.905
0.315415	31.128
0.359856	31.596
0.408583	31.987
0.411278	34.424
0.457118	35.279
0.459448	37.793
0.512441	34.161
0.514863	39.345
0.560429	37.492
0.565728	41.167
0.607383	42.022
0.610828	44.498
0.662807	47.506
0.665219	47.636
0.715061	49.032
0.715344	49.068
0.7609	52.672
0.764902	60.333
0.808422	61.071
0.809729	67.609
0.832223	65.444
0.84199	72.873
0.858912	71.752
0.866542	78.562
0.885601	77.171
0.887556	87.075
0.907001	103.208
0.911175	89.398
0.933497	101.818
0.937591	125.881
0.95591	125.999
0.964948	185.036
0.984676	247.865
0.984849	247.402
0.989428	272.005
0.992499	290.691
0.994708	219.933
