Adsorption isotherm of Nitrogen on PGMA-PEI(600)hydrogel
DOI: 10.1021/acs.iecr.5b01305
Article source: Figure 3- PGMA PEI 600 hydrogel
Adsorbate Nitrogen: InChIKey IJGRMHOSHXDMSA-UHFFFAOYSA-N
Kind: experiment
Temperature: 77 K
Tabular data in the source: 0
pressure (bar)	uptake (cm3(STP)/g)
0.049751	7.354
0.101639	9.486
0.152403	11.27
0.202802	12.976
0.252826	14.217
0.303874	15.072
0.354739	16.082
0.405513	17.092
0.456003	18.256
0.506767	19.421
0.557257	15.208
0.557916	15.222
0.608406	21.672
0.656849	17.73
0.658521	23.03
0.709751	24.35
0.758478	25.553
0.760343	26.094
0.810276	28.265
0.81139	28.132
0.836681	29.293
0.836955	29.311
0.859925	25.135
0.861323	30.938
0.885408	26.096
0.885591	26.104
0.911165	36.822
0.936182	47.269
0.937854	34.967
0.958403	45.259
0.961665	68.124
0.98725	115.478
0.988537	67.623
1.00659	150.607
