Adsorption isotherm of Nitrogen on PGMA-PEI(10000)hydrogel
DOI: 10.1021/acs.iecr.5b01305
Article source: Figure 3- PGMA PEI 10000 hydrogel
Adsorbate Nitrogen: InChIKey IJGRMHOSHXDMSA-UHFFFAOYSA-N
Kind: experiment
Temperature: 77 K
Tabular data in the source: 0
pressure (bar)	uptake (cm3(STP)/g)
0.051331	3.219
0.051889	3.215
0.101821	4.529
0.10321	4.728
0.152028	5.621
0.152403	2.642
0.202336	3.033
0.204565	6.399
0.254123	7.826
0.254407	7.834
0.30434	3.428
0.305272	3.4
0.353533	3.401
0.354455	3.432
0.405047	9.2
0.405786	9.227
0.455344	10.037
0.455436	10.055
0.505561	4.47
0.506584	4.256
0.556791	5.072
0.557166	10.604
0.607372	11.227
0.607565	11.191
0.657397	8.909
0.657498	8.914
0.708171	9.039
0.708454	9.029
0.758945	6.325
0.759867	6.372
0.810357	6.329
0.810458	6.328
0.834999	7.066
0.83584	10.084
0.860948	9.428
0.861313	6.449
0.886888	10.049
0.910689	10.012
0.937094	10.556
0.961372	10.712
0.987686	11.333
1.00674	13.656
