Adsorption isotherm of Carbon Dioxide on PGMA-PEI hydrogel
DOI: 10.1021/acs.iecr.5b01305
Article source: Figure 9a- 313 K
Adsorbate Carbon Dioxide: InChIKey CURLTUGMZLYLDI-UHFFFAOYSA-N
Kind: experiment
Temperature: 313 K
Tabular data in the source: 0
pressure (bar)	uptake (mmol/g)
0.013	0.4071
0.01463	0.6602
0.01626	0.8893
0.02135	1.1483
0.02233	1.3832
0.02623	1.683
0.03219	1.9493
0.04053	2.3243
0.06577	2.8167
0.10259	3.2376
0.13509	3.6447
0.18533	3.9445
0.22161	4.1589
0.275	4.3442
0.32936	4.5031
0.37993	4.6176
0.42314	4.6957
0.52612	4.7503
0.61469	4.7597
0.74138	4.8011
0.82541	4.8141
0.91561	4.8301
1.00646	4.8373
