Adsorption isotherm of Carbon Dioxide on PGMA-PEI hydrogel
DOI: 10.1021/acs.iecr.5b01305
Article source: Figure 9a- 353 K
Adsorbate Carbon Dioxide: InChIKey CURLTUGMZLYLDI-UHFFFAOYSA-N
Kind: experiment
Temperature: 353 K
Tabular data in the source: 0
pressure (bar)	uptake (mmol/g)
0.01267	0.1335
0.01462	0.2371
0.0261	0.3866
0.03693	0.5894
0.04354	0.7995
0.05838	1.0571
0.07084	1.3007
0.09217	1.5867
0.12802	1.8011
0.16159	1.912
0.21173	2.0381
0.25753	2.0979
0.29825	2.1847
0.33691	2.2394
0.38433	2.2969
0.44151	2.3684
0.5276	2.3902
0.62624	2.4141
0.74568	2.4556
0.82873	2.4752
0.92272	2.5189
1.00307	2.5546
