Adsorption isotherm of Carbon Dioxide on PEI MW1800
DOI: 10.1021/acs.iecr.5b01305
Article source: Figure 4- PEI MW 1800
Adsorbate Carbon Dioxide: InChIKey CURLTUGMZLYLDI-UHFFFAOYSA-N
Kind: experiment
Temperature: 313 K
Tabular data in the source: 0
pressure (bar)	uptake (mmol/g)
0.00234	0.0381
0.06713	1.7335
0.09666	2.2255
0.12861	2.7349
0.17139	3.0563
0.21628	3.3396
0.26671	3.6229
0.32166	3.7724
0.3667	3.9321
0.41135	4.0977
0.51477	4.245
0.60327	4.3389
0.72845	4.3865
0.81703	4.3968
0.90506	4.4199
1.00059	4.4255
