Adsorption isotherm of Carbon Dioxide on IFMC-1
DOI: 10.1039/C2sc00017b
Adsorbate Carbon Dioxide: InChIKey CURLTUGMZLYLDI-UHFFFAOYSA-N
Temperature: 195 K
Tabular data in the source: 0
pressure (bar)	uptake (cm3(STP)/g)
0.00229475	2.47803
0.00515504	12.2602
0.00944547	42.6364
0.0108756	60.1414
0.0108756	80.478
0.0165962	109.825
0.0795225	135.567
0.125287	141.488
0.198224	146.894
0.304055	151.27
0.428477	155.132
0.542889	157.706
0.730238	161.31
0.890414	164.399
1.01055	166.716
