Adsorption isotherm of Nitrogen on IFMC-1
DOI: 10.1039/C2sc00017b
Adsorbate Nitrogen: InChIKey IJGRMHOSHXDMSA-UHFFFAOYSA-N
Temperature: 77 K
Tabular data in the source: 0
pressure (bar)	uptake (cm3(STP)/g)
0.00619484	2.65297
0.00837971	47.4429
0.00837971	76.3925
0.00837971	125.552
0.00837971	165.972
0.0149343	182.359
0.0630016	193.829
0.154766	201.477
0.248716	204.754
0.373254	207.485
0.489052	209.67
0.600481	211.855
0.716279	215.678
0.829892	219.502
0.928212	229.88
