Adsorption isotherm of Hydrogen on IFMC-1
DOI: 10.1039/C2sc00017b
Adsorbate Hydrogen: InChIKey UFHFLCQGNIYNRP-UHFFFAOYSA-N
Temperature: 77 K
Tabular data in the source: 0
pressure (bar)	uptake (wt%)
0.00619484	0.0301508
0.0149343	0.124974
0.0258587	0.222857
0.0673713	0.424739
0.115439	0.571563
0.156951	0.68168
0.222497	0.788739
0.312077	0.895798
0.421321	0.99368
0.526195	1.07627
0.631069	1.13744
0.720649	1.18333
0.827707	1.23227
0.928212	1.27509
1.00687	1.30262
