Adsorption isotherm of Nitrogen on IFMC-1
DOI: 10.1039/C2sc00017b
Adsorbate Nitrogen: InChIKey IJGRMHOSHXDMSA-UHFFFAOYSA-N
Temperature: 298 K
Tabular data in the source: 0
pressure (bar)	uptake (cm3(STP)/g)
0.0337579	1.19091
0.102405	0.933479
0.175342	1.70576
0.248279	1.70576
0.35268	2.22061
0.45279	2.47803
0.55433	2.22061
0.65015	2.73546
0.75026	2.99289
0.85466	3.50774
0.924737	3.76516
1.01055	4.02259
