Adsorption isotherm of Carbon Dioxide on IFMC-1
DOI: 10.1039/C2sc00017b
Adsorbate Carbon Dioxide: InChIKey CURLTUGMZLYLDI-UHFFFAOYSA-N
Temperature: 273 K
Tabular data in the source: 0
pressure (bar)	uptake (cm3(STP)/g)
0.025177	9.1711
0.0580703	17.9236
0.0966842	25.1315
0.168191	36.4582
0.259721	49.0721
0.319786	55.2503
0.381283	60.1414
0.487113	68.379
0.540029	71.7256
0.664451	77.3889
0.741679	80.9929
0.837498	85.1117
0.898994	87.1711
0.971932	88.9731
1.01484	90.7751
