Adsorption isotherm of Carbon Dioxide on IFMC-1
DOI: 10.1039/C2sc00017b
Adsorbate Carbon Dioxide: InChIKey CURLTUGMZLYLDI-UHFFFAOYSA-N
Temperature: 298 K
Tabular data in the source: 0
pressure (bar)	uptake (cm3(STP)/g)
0.0323278	5.82457
0.065221	8.65625
0.142449	16.379
0.189643	20.7553
0.262581	25.9038
0.318356	29.7652
0.368411	33.3691
0.415606	35.9434
0.521437	42.1216
0.660161	48.2998
0.720227	50.6166
0.816046	54.478
0.900425	57.5671
0.941899	58.8543
1.01055	60.1414
