Adsorption isotherm of Nitrogen on IFMC-1
DOI: 10.1039/C2sc00017b
Adsorbate Nitrogen: InChIKey IJGRMHOSHXDMSA-UHFFFAOYSA-N
Temperature: 195 K
Tabular data in the source: 0
pressure (bar)	uptake (cm3(STP)/g)
0.0580703	4.02259
0.0909636	6.08199
0.129577	7.88397
0.231118	12.7751
0.34982	16.8939
0.45422	21.0127
0.595804	24.6166
0.710216	27.7058
0.85752	30.0226
1.00339	32.3394
