Adsorption isotherm of Nitrogen on IFMC-1
DOI: 10.1039/C2sc00017b
Adsorbate Nitrogen: InChIKey IJGRMHOSHXDMSA-UHFFFAOYSA-N
Temperature: 273 K
Tabular data in the source: 0
pressure (bar)	uptake (cm3(STP)/g)
0.0323278	1.19091
0.0881033	1.19091
0.186783	1.44833
0.285463	1.70576
0.391294	1.96318
0.492834	1.96318
0.597234	1.96318
0.691624	2.47803
0.791734	2.99289
0.896134	2.99289
1.00769	2.99289
