Adsorption isotherm of Carbon Dioxide on M-DNL-6
DOI: 10.1002/cssc.201200907
Adsorbate Carbon Dioxide: InChIKey CURLTUGMZLYLDI-UHFFFAOYSA-N
Temperature: 313 K
Tabular data in the source: 0
pressure (bar)	uptake (mmol/g)
0.0135028	0.256445
0.0625169	0.700107
0.109841	1.03532
0.194348	1.51842
0.258573	1.82405
0.327869	2.10011
0.398855	2.35644
0.473221	2.58321
0.552658	2.79025
0.628714	2.97757
0.711531	3.15504
0.797728	3.34236
0.885616	3.50011
0.973503	3.64799
1.10702	3.84518
