Adsorption isotherm of Methane on M-DNL-6
DOI: 10.1002/cssc.201200907
Adsorbate Methane: InChIKey VNWKTOKETHGBQD-UHFFFAOYSA-N
Temperature: 298 K
Tabular data in the source: 0
pressure (bar)	uptake (mmol/g)
0.0625169	0.0296842
0.131813	0.108557
0.197728	0.147994
0.261954	0.19729
0.332939	0.226867
0.466461	0.295881
0.535756	0.3156
0.674348	0.355036
0.738573	0.355036
0.873785	0.384614
0.94477	0.394473
1.009	0.394473
1.10195	0.404332
