Adsorption isotherm of Carbon Dioxide on H-DNL-6
DOI: 10.1002/cssc.201200907
Adsorbate Carbon Dioxide: InChIKey CURLTUGMZLYLDI-UHFFFAOYSA-N
Temperature: 298 K
Tabular data in the source: 0
pressure (bar)	uptake (mmol/g)
0.0208866	0.297657
0.0466292	0.547932
0.0766622	0.791057
0.106695	0.998427
0.181063	1.36311
0.259721	1.6992
0.348389	1.98523
0.441349	2.24265
0.538598	2.47147
0.641569	2.67169
0.740249	2.84331
0.843219	2.99348
0.95477	3.14364
1.06632	3.27951
