Adsorption isotherm of Methane on SAPO-34
DOI: 10.1002/cssc.201200907
Adsorbate Methane: InChIKey VNWKTOKETHGBQD-UHFFFAOYSA-N
Temperature: 298 K
Tabular data in the source: 0
pressure (bar)	uptake (mmol/g)
0.0287576	0.0366303
0.0850099	0.0747674
0.143169	0.112905
0.202282	0.151042
0.258534	0.184412
0.316693	0.217782
0.376759	0.241617
0.439685	0.27022
0.494031	0.294056
0.556004	0.313125
0.61607	0.327426
0.673275	0.341727
0.732388	0.351262
0.790547	0.365563
0.853473	0.375097
0.908772	0.384632
0.968838	0.384632
1.02795	0.398933
