Adsorption isotherm of Methane on M-DNL-6
DOI: 10.1002/cssc.201200907
Adsorbate Methane: InChIKey VNWKTOKETHGBQD-UHFFFAOYSA-N
Temperature: 298 K
Tabular data in the source: 0
pressure (bar)	uptake (mmol/g)
0.134588	0.0747674
0.265208	0.17011
0.332901	0.198713
0.397734	0.241617
0.537888	0.30359
0.603675	0.327426
0.738109	0.360796
0.808662	0.365563
0.943096	0.4037
1.0127	0.394166
