Adsorption isotherm of Methane on Zeolite Na-A
DOI: 10.1002/cssc.201200907
Adsorbate Methane: InChIKey VNWKTOKETHGBQD-UHFFFAOYSA-N
Temperature: 298 K
Tabular data in the source: 0
pressure (bar)	uptake (mmol/g)
0.0773824	0.0795345
0.156517	0.146275
0.314786	0.27022
0.397734	0.313125
0.478776	0.346495
0.558864	0.384632
0.637998	0.427536
0.719993	0.475207
0.796268	0.499043
0.877309	0.522879
0.960257	0.551482
1.04225	0.561016
