Adsorption isotherm of Methane on M-DNL-6
DOI: 10.1002/cssc.201200907
Adsorbate Methane: InChIKey VNWKTOKETHGBQD-UHFFFAOYSA-N
Temperature: 273 K
Tabular data in the source: 0
pressure (bar)	uptake (mmol/g)
0.0963197	0.217008
0.190968	0.384614
0.305897	0.562079
0.410686	0.749402
0.522235	0.887431
0.635475	1.02546
0.755475	1.17335
0.872094	1.31137
0.993785	1.4494
1.11716	1.54799
