Adsorption isotherm of Methane on H-DNL-6
DOI: 10.1002/cssc.201200907
Adsorbate Methane: InChIKey VNWKTOKETHGBQD-UHFFFAOYSA-N
Temperature: 298 K
Tabular data in the source: 0
pressure (bar)	uptake (mmol/g)
0.0993113	0.0700003
0.163191	0.112905
0.296671	0.189179
0.429198	0.251152
0.567445	0.308357
0.668508	0.346495
0.739062	0.365563
0.805802	0.384632
0.871589	0.379865
0.905912	0.389399
0.975512	0.398933
1.0413	0.389399
