Adsorption isotherm of Methane on M-DNL-6
DOI: 10.1002/cssc.201200907
Adsorbate Methane: InChIKey VNWKTOKETHGBQD-UHFFFAOYSA-N
Temperature: 313 K
Tabular data in the source: 0
pressure (bar)	uptake (mmol/g)
0.10139	0.0592616
0.199418	0.138135
0.295756	0.187431
0.400545	0.256445
0.500263	0.276163
0.601672	0.325459
0.70139	0.374755
0.802799	0.404332
0.907587	0.443769
1.00393	0.443769
1.10702	0.483205
