Adsorption isotherm of Carbon Dioxide on L-DNL-6
DOI: 10.1002/cssc.201200907
Adsorbate Carbon Dioxide: InChIKey CURLTUGMZLYLDI-UHFFFAOYSA-N
Temperature: 298 K
Tabular data in the source: 0
pressure (bar)	uptake (mmol/g)
0.00944547	0.168944
0.0366182	0.662344
0.0695115	1.07709
0.106695	1.43462
0.145309	1.76355
0.196794	2.06388
0.246849	2.34276
0.301195	2.57158
0.361261	2.82186
0.418466	3.02923
0.488543	3.2366
0.570062	3.45112
0.638708	3.62989
0.705925	3.76575
0.778862	3.90162
0.85037	4.03748
0.926167	4.16619
1.00912	4.30206
1.05631	4.36641
