Adsorption isotherm of Nitrogen on M-DNL-6
DOI: 10.1002/cssc.201200907
Adsorbate Nitrogen: InChIKey IJGRMHOSHXDMSA-UHFFFAOYSA-N
Temperature: 77 K
Tabular data in the source: 0
pressure (bar)	uptake (cm3(STP)/g)
0.000865	165.048
0.00229475	5.22939
0.00229475	95.6859
0.00229475	215.818
0.00372489	45.2734
0.00515504	232.622
0.0280373	240.488
0.0666512	242.276
0.116706	244.063
0.198224	245.136
0.299764	244.778
0.419897	244.778
0.517146	244.778
0.620117	244.421
0.718796	244.063
0.823197	244.063
0.898994	246.566
0.95334	247.996
0.986233	249.784
0.997674	253.717
