Adsorption isotherm of Carbon Dioxide on M-DNL-6
DOI: 10.1002/cssc.201200907
Adsorbate Carbon Dioxide: InChIKey CURLTUGMZLYLDI-UHFFFAOYSA-N
Temperature: 298 K
Tabular data in the source: 0
pressure (bar)	uptake (mmol/g)
0.0137359	0.362014
0.0308976	0.690946
0.0523498	0.984126
0.0766622	1.27015
0.103835	1.53473
0.162471	2.02813
0.233978	2.47863
0.306915	2.84331
0.391294	3.1937
0.481393	3.49403
0.580073	3.78006
0.678752	4.01603
0.778862	4.23055
0.887553	4.44507
0.997674	4.61669
1.0606	4.70965
