Adsorption isotherm of Carbon Dioxide on M-DNL-6
DOI: 10.1002/cssc.201200907
Adsorbate Carbon Dioxide: InChIKey CURLTUGMZLYLDI-UHFFFAOYSA-N
Temperature: 298 K
Tabular data in the source: 0
pressure (bar)	uptake (mmol/g)
0.0135028	0.335318
0.0540662	1.00574
0.10477	1.56771
0.158855	2.06067
0.231531	2.4649
0.305897	2.85926
0.390404	3.21419
0.483362	3.50997
0.57801	3.7663
0.676038	4.00292
0.782517	4.2494
0.888996	4.44659
0.995475	4.61419
1.10871	4.77194
