Adsorption isotherm of Methane on L-DNL-6
DOI: 10.1002/cssc.201200907
Adsorbate Methane: InChIKey VNWKTOKETHGBQD-UHFFFAOYSA-N
Temperature: 298 K
Tabular data in the source: 0
pressure (bar)	uptake (mmol/g)
0.0344781	0.0556988
0.0935907	0.0986031
0.15461	0.141507
0.21563	0.184412
0.273789	0.246385
0.337668	0.284522
0.400595	0.322659
0.464474	0.356029
0.528354	0.379865
0.59128	0.408467
0.65802	0.418002
0.720947	0.441837
0.786733	0.460906
0.853473	0.465673
0.917353	0.47044
0.98314	0.47044
1.01651	0.479975
