Adsorption isotherm of Carbon Dioxide on SAPO-34
DOI: 10.1002/cssc.201200907
Adsorbate Carbon Dioxide: InChIKey CURLTUGMZLYLDI-UHFFFAOYSA-N
Temperature: 298 K
Tabular data in the source: 0
pressure (bar)	uptake (mmol/g)
0.0208866	0.304808
0.0466292	0.562234
0.100975	1.01273
0.165331	1.42747
0.233978	1.77786
0.311206	2.08534
0.391294	2.36421
0.478532	2.60019
0.567201	2.81471
0.65587	3.00063
0.748829	3.1937
0.847509	3.36531
0.943329	3.51548
1.06489	3.67279
