Adsorption isotherm of Carbon Dioxide on Zeolite Na-A
DOI: 10.1002/cssc.201200907
Adsorbate Carbon Dioxide: InChIKey CURLTUGMZLYLDI-UHFFFAOYSA-N
Temperature: 298 K
Tabular data in the source: 0
pressure (bar)	uptake (mmol/g)
0.00372489	0.404918
0.00515504	0.798207
0.00658518	1.2344
0.00658518	1.67775
0.00944547	2.09249
0.0123058	2.49293
0.0208866	2.83616
0.0409086	3.09359
0.0623608	3.27951
0.0923938	3.40107
0.15675	3.59414
0.223967	3.7586
0.292614	3.85871
0.365551	3.98028
0.441349	4.06608
0.517146	4.13759
0.594374	4.21625
0.671602	4.28061
0.748829	4.33781
0.864671	4.40932
0.944759	4.45937
1.01627	4.50943
1.0606	4.53803
