Adsorption isotherm of Carbon Dioxide on M-DNL-6
DOI: 10.1002/cssc.201200907
Adsorbate Carbon Dioxide: InChIKey CURLTUGMZLYLDI-UHFFFAOYSA-N
Temperature: 273 K
Tabular data in the source: 0
pressure (bar)	uptake (mmol/g)
0.00674227	0.325459
0.0101226	0.66067
0.0236437	1.26208
0.0456155	1.85363
0.0709676	2.38602
0.10477	2.85926
0.147024	3.3325
0.189277	3.71701
0.250123	4.11137
0.33801	4.57475
0.410686	4.83109
0.478292	5.05785
0.561108	5.27475
0.643925	5.4818
0.730123	5.6494
0.81801	5.79729
0.909277	5.92546
0.998855	6.06349
1.0935	6.19166
