Adsorption isotherm of Water on CuBTC
DOI: 10.1021/Jp806363w
Adsorbate Water: InChIKey XLYOFNOQVPJJNP-UHFFFAOYSA-N
Temperature: 295 K
Tabular data in the source: 0
pressure (bar)	uptake (mmol/g)
0.000248	0.43073
0.000497	0.679806
0.00074	1.08619
0.00100833	1.45325
0.00125741	1.78098
0.00150648	2.01695
0.00174901	2.23981
0.00201119	2.58065
0.00226026	3.0788
0.00252245	3.30165
0.00275842	4.35039
