Adsorption isotherm of Water on CuBTC
DOI: 10.1021/Jp806363w
Adsorbate Water: InChIKey XLYOFNOQVPJJNP-UHFFFAOYSA-N
Temperature: 295 K
Tabular data in the source: 0
pressure (bar)	uptake (mmol/g)
0.000248	0.247201
0.00051	0.483167
0.000746	0.706024
0.00101489	0.941991
0.00125741	1.13863
0.00151304	1.23039
0.00177522	1.49258
0.00226026	2.00384
0.0025159	2.34468
0.00275186	2.59376
