Adsorption isotherm of Water on CuBTC
DOI: 10.1021/Jp806363w
Adsorbate Water: InChIKey XLYOFNOQVPJJNP-UHFFFAOYSA-N
Temperature: 295 K
Tabular data in the source: 0
pressure (bar)	uptake (mmol/g)
0.000255	0.588041
0.000504	1.13863
0.000753	1.68922
0.000995	1.88586
0.00126396	2.29224
0.00149337	2.98703
0.00174901	3.23611
0.00200464	3.9309
0.00226026	4.44216
0.00273875	5.28115
