Adsorption isotherm of Water on CuBTC
DOI: 10.1021/Jp806363w
Adsorbate Water: InChIKey XLYOFNOQVPJJNP-UHFFFAOYSA-N
Temperature: 295 K
Tabular data in the source: 0
pressure (bar)	uptake (mmol/g)
0.000248	0.142327
0.000746	0.456949
0.00125085	0.719133
0.00175556	0.981318
0.00226026	1.28283
0.00275842	1.63678
