Adsorption isotherm of Water on CuBTC
DOI: 10.1021/Jp806363w
Adsorbate Water: InChIKey XLYOFNOQVPJJNP-UHFFFAOYSA-N
Temperature: 295 K
Tabular data in the source: 0
pressure (bar)	uptake (mmol/g)
2.51e-05	0.129218
4.48e-05	0.391402
0.000294	0.627369
0.000595	0.9551
0.000943	1.46636
0.00127052	1.92518
0.00167035	2.23981
0.0019522	2.47577
0.00234547	2.77728
0.00246346	3.14434
0.00270598	3.38031
