Adsorption isotherm of Acetonitrile on {[Ce(tci)*H2O]*4H2O}n
DOI: 10.1002/anie.200705986
Adsorbate Acetonitrile: InChIKey WEVYAHXRMPXWCK-UHFFFAOYSA-N
Temperature: 298 K
Tabular data in the source: 0
pressure (bar)	uptake (molecules/unitcell)
0.0367831	0.0405726
0.156951	0.106119
0.222497	0.106119
0.296783	0.149816
0.447539	0.149816
0.530565	0.106119
0.60485	0.127968
0.685691	0.215363
0.757791	0.215363
0.832077	0.193514
0.971909	0.193514
