Adsorption isotherm of Methanol on {[Ce(tci)*H2O]*4H2O}n
DOI: 10.1002/anie.200705986
Adsorbate Methanol: InChIKey OKKJLVBELUTLKV-UHFFFAOYSA-N
Temperature: 298 K
Tabular data in the source: 0
pressure (bar)	uptake (molecules/unitcell)
0.00837971	0.324606
0.0761108	1.67923
0.115439	1.87587
0.154766	1.98511
0.25964	2.02881
0.408212	2.09435
0.563338	2.1162
0.679136	2.13805
0.886699	2.26914
0.917287	3.47082
0.956615	4.41032
