Adsorption isotherm of Ethanol on {[Ce(tci)*H2O]*4H2O}n
DOI: 10.1002/anie.200705986
Adsorbate Ethanol: InChIKey LFQSCWFLJHTTHZ-UHFFFAOYSA-N
Temperature: 298 K
Tabular data in the source: 0
pressure (bar)	uptake (molecules/unitcell)
0.0324133	0
0.102329	0
0.17443	0
0.246531	0
0.327371	0
0.473758	0
0.61796	0
0.766531	0
0.912918	0
0.952245	0
