Adsorption isotherm of Water on {[Ce(tci)*H2O]*4H2O}n
DOI: 10.1002/anie.200705986
Adsorbate Water: InChIKey XLYOFNOQVPJJNP-UHFFFAOYSA-N
Temperature: 298 K
Tabular data in the source: 0
pressure (bar)	uptake (molecules/unitcell)
0.0564469	0.805278
0.0782957	2.18175
0.0957747	3.38343
0.135102	4.56326
0.17443	5.43721
0.218128	5.612
0.292413	5.96158
0.406027	6.13637
0.493422	6.39856
0.757791	7.29435
0.845186	7.55654
0.965355	8.27755
