Adsorption isotherm of Zn(II), Water on Zinc(II)-imprinted polymer
DOI: 10.1007/s00289-017-1987-1
Article source: Figure 8
Adsorbate Zn(II): InChIKey PTFCDOFLOPIGGS-UHFFFAOYSA-N
Adsorbate Water: InChIKey XLYOFNOQVPJJNP-UHFFFAOYSA-N
Kind: experiment
Temperature: 293 K
Tabular data in the source: 0
pressure (bar)	Zn(II) fraction	Zn(II) uptake (mg/g)	Water fraction	Water uptake (mg/g)	total uptake (mg/g)
1.01325	0.0163	3.01852			
1.01325	1.2335	3.72771			
1.01325	5.5729	3.59588			
1.01325	8.2497	4.92961			
1.01325	13.2761	4.67271			
1.01325	18.5909	4.84896			
1.01325	22.1543	5.12772			
1.01325	26.148	5.18491			
