Adsorption isotherm of Zn(II), Water on Zinc-imprinted polymer
DOI: 10.1007/s00289-017-1987-1
Article source: Figure 7
Adsorbate Zn(II): InChIKey PTFCDOFLOPIGGS-UHFFFAOYSA-N
Adsorbate Water: InChIKey XLYOFNOQVPJJNP-UHFFFAOYSA-N
Kind: experiment
Temperature: 293 K
Tabular data in the source: 0
pressure (bar)	Zn(II) fraction	Zn(II) uptake (mg/g)	Water fraction	Water uptake (mg/g)	total uptake (mg/g)
1.01325	9.9938	3.6314			
1.01325	15.0128	3.6126			
1.01325	19.9695	4.9096			
1.01325	25.038	4.6783			
1.01325	29.9454	4.8533			
1.01325	35.0139	5.1359			
1.01325	39.9956	5.1817			
