Adsorption isotherm of Zn(II), Water on Non imprinted polymer
DOI: 10.1007/s00289-017-1987-1
Article source: Figure 7
Adsorbate Zn(II): InChIKey PTFCDOFLOPIGGS-UHFFFAOYSA-N
Adsorbate Water: InChIKey XLYOFNOQVPJJNP-UHFFFAOYSA-N
Kind: experiment
Temperature: 293 K
Tabular data in the source: 0
pressure (bar)	Zn(II) fraction	Zn(II) uptake (mg/g)	Water fraction	Water uptake (mg/g)	total uptake (mg/g)
1.01325	10.0562	0.0343			
1.01325	15.0525	0.0818			
1.01325	20.0488	0.109			
1.01325	25.0451	0.2176			
1.01325	29.8697	0.2143			
1.01325	35.0221	0.2042			
1.01325	39.9091	0.2246			
