Adsorption isotherm of Nitrogen on {[CH3]2NH2][Zn2(L)(H2O)PO4]*2DMF}n desolvated
DOI: 10.1021/acs.inorgchem.7b02443
Article source: Figure 3
Adsorbate Nitrogen: InChIKey IJGRMHOSHXDMSA-UHFFFAOYSA-N
Kind: experiment
Temperature: 77 K
Tabular data in the source: 0
pressure (bar)	uptake (cm3(STP)/g)
0.001621	56.974
0.002371	178.318
0.002422	105.114
0.00308	117.174
0.00309	96.052
0.003222	159.082
0.003232	142.036
0.003435	87.832
0.003708	167.908
0.004033	182.832
0.004712	170.704
0.004864	190.243
0.005694	187.952
0.006191	193.713
0.009028	195.397
0.013192	196.239
0.015026	192.028
0.020184	197.553
0.021855	194.79
0.030346	196.272
0.046669	199.64
0.053164	198.191
0.075648	200.751
0.083146	199.942
0.09497	202.838
0.106794	200.918
0.124952	202.467
0.137617	201.388
0.146442	204.083
0.158601	202.398
0.174428	204.654
0.184084	203.003
0.194581	206.405
0.216396	203.911
0.222059	207.583
0.237055	204.921
0.251048	206.773
0.264534	205.762
0.271029	208.726
0.289358	206.502
0.30251	208.186
0.315672	207.04
0.318002	210.106
0.334498	208.084
0.349149	208.588
0.361976	207.981
0.368471	209.969
0.390965	208.587
0.395291	211.383
0.409618	209.024
0.425942	210.202
0.444433	209.393
0.452255	211.414
0.466086	208.617
0.473077	210.571
0.495733	213.197
0.496229	209.694
0.518885	210.266
0.525552	211.108
0.545533	213.701
0.547874	211.006
0.563862	211.375
0.573853	211.746
0.596002	212.418
0.598343	210.936
0.619489	213.933
0.621495	211.845
0.644809	212.147
0.65098	212.315
0.670961	214.167
0.674629	211.539
0.700446	212.481
0.72143	212.413
0.725098	215.209
0.749922	212.783
0.754745	212.984
0.77657	213.051
0.778069	213.927
0.800057	213.016
0.801718	215.105
0.826036	213.049
0.831365	213.621
0.848357	216.215
0.853028	213.351
0.874509	213.956
0.87918	214.091
0.900832	214.865
0.908492	212.776
0.923478	214.022
0.926315	216.986
0.953297	213.616
0.956459	214.02
0.977949	214.761
0.979115	216.546
1.00427	214.928
1.0081	213.344
1.02176	214.523
