Adsorption isotherm of Carbon Dioxide on {[Zn(L)]*2DMF*2H20}n desolvated
DOI: 10.1021/acs.inorgchem.7b02443
Article source: Figure 3
Adsorbate Carbon Dioxide: InChIKey CURLTUGMZLYLDI-UHFFFAOYSA-N
Kind: experiment
Temperature: 273 K
Tabular data in the source: 0
pressure (bar)	uptake (cm3(STP)/g)
0.005948	0.113
0.025148	2.41
0.046791	2.822
0.053732	5.237
0.074564	5.414
0.076195	6.945
0.091312	6.65
0.102336	8.712
0.132551	11.48
0.148073	11.892
0.156645	13.482
0.181561	15.131
0.194631	14.66
0.20525	16.603
0.246499	18.193
0.258749	20.255
0.298781	22.021
0.304901	23.494
0.348602	25.319
0.3584	26.732
0.4021	27.733
0.412719	29.735
0.451931	30.677
0.464181	32.091
0.496037	33.032
0.508287	34.151
0.545047	35.505
0.564248	37.272
0.596103	38.155
0.621424	40.04
0.647971	40.805
0.670434	42.513
0.696575	43.16
0.719039	44.986
0.748848	45.751
0.77049	47.223
0.799084	48.46
0.819916	49.52
0.845642	50.579
0.871378	51.816
0.896283	52.876
0.900782	52.934
0.92365	53.994
0.927734	53.994
0.961636	55.996
0.964088	55.525
0.99022	57.174
1.02086	58.528
