Adsorption isotherm of Carbon Dioxide on {[CH3]2NH2][Zn2(L)(H2O)PO4]*2DMF}n desolvated
DOI: 10.1021/acs.inorgchem.7b02443
Article source: Figure 3
Adsorbate Carbon Dioxide: InChIKey CURLTUGMZLYLDI-UHFFFAOYSA-N
Kind: experiment
Temperature: 273 K
Tabular data in the source: 0
pressure (bar)	uptake (cm3(STP)/g)
0.001459	0.21
0.004215	1.239
0.006971	2.197
0.009393	3.39
0.012311	4.979
0.016364	6.242
0.01912	7.223
0.022524	7.855
0.026567	8.719
0.04747	16.504
0.04828	13.769
0.07502	19.8
0.07583	22.044
0.100624	24.568
0.10111	26.789
0.124931	32.61
0.126715	30.038
0.15086	33.942
0.151995	36.747
0.17614	41.609
0.176788	38.289
0.199799	46.027
0.202555	42.216
0.226376	49.814
0.227349	46.354
0.250359	53.811
0.255547	49.79
0.274018	57.06
0.277747	53.81
0.301568	60.239
0.303199	56.825
0.325713	63.885
0.330424	60.285
0.353435	63.113
0.353587	67.368
0.377418	69.985
0.382768	66.455
0.404644	72.673
0.404968	69.167
0.428799	71.2
0.43041	75.314
0.453907	77.769
0.458294	74.238
0.479683	79.404
0.479683	75.945
0.503352	78.843
0.50545	82.303
0.529595	84.383
0.531388	80.806
0.555534	85.808
0.55602	82.746
0.579031	88.099
0.580175	84.99
0.606266	86.929
0.607229	90.179
0.629925	92.072
0.632033	88.612
0.656178	93.638
0.657647	90.341
0.681468	95.016
0.684386	92.562
0.704641	97.026
0.70918	93.917
0.733163	98.382
0.733984	95.576
0.757481	97.119
0.75975	99.667
0.78503	98.895
0.785517	101.677
0.811455	102.378
0.812104	100.273
0.836411	104.224
0.836898	101.769
0.861205	105.392
0.862026	103.522
0.884712	106.444
0.885036	104.831
0.908209	107.402
0.910154	106.35
0.937714	107.705
0.941605	108.897
0.960238	109.972
0.961697	108.733
0.985042	110.252
0.988446	111.023
1.00481	111.42
