Adsorption isotherm of Carbon Dioxide on MIL-53(Sc)
DOI: 10.1021/Ja403453g
Adsorbate Carbon Dioxide: InChIKey CURLTUGMZLYLDI-UHFFFAOYSA-N
Temperature: 196 K
Tabular data in the source: 0
pressure (bar)	uptake (mmol/g)
0.00837971	0.310872
0.0498923	0.337091
0.0979595	1.38583
0.200649	2.09373
0.25527	2.1986
0.307707	2.40835
0.408212	2.64432
0.447539	2.72297
0.502161	2.77541
0.602665	2.93272
0.69443	3.06381
0.746867	3.06381
0.794934	5.76432
0.847371	9.93306
0.87796	11.4275
0.888884	11.8994
0.991573	12.5811
