Adsorption isotherm of Ethene on MOF-74-Co
DOI: 10.1002/slct.201601095
Article source: Figure 2
Adsorbate Ethene: InChIKey VGGSQFUCUMXWEO-UHFFFAOYSA-N
Kind: experiment
Temperature: 353 K
Tabular data in the source: 0
pressure (bar)	uptake (mmol/g)
0.001113	0.0522
0.001659	0.0359
0.002473	0.1026
0.003804	0.1112
0.005887	0.1364
0.008455	0.2197
0.012761	0.2947
0.019266	0.4194
0.029262	0.6189
0.042815	0.8514
0.063826	1.2085
0.100023	1.6734
0.144544	2.1881
0.225113	2.7858
0.321218	3.4664
0.484842	4.0143
0.731981	4.5041
1.11173	4.9441
1.66802	5.3509
2.59717	5.6416
