Adsorption isotherm of Ethene on MOF-74-Ni
DOI: 10.1002/slct.201601095
Article source: Figure S3
Adsorbate Ethene: InChIKey VGGSQFUCUMXWEO-UHFFFAOYSA-N
Kind: experiment
Temperature: 318 K
Tabular data in the source: 0
pressure (bar)	uptake (mmol/g)
0.001136	0.1804
0.001741	0.2493
0.002558	0.2924
0.003855	0.4651
0.005906	0.6205
0.00868	0.8277
0.012972	1.1128
0.019391	1.4497
0.02898	1.8731
0.044412	2.3397
0.06421	2.7977
0.102612	3.3507
0.14832	3.8519
0.223563	4.3357
0.33512	4.8146
0.50038	5.2338
0.755092	5.6855
1.1392	6.1373
1.70098	6.5782
2.56685	6.9756
