Adsorption isotherm of Ethene on Fe-MOF-74
DOI: 10.1002/slct.201601095
Article source: Figure S1
Adsorbate Ethene: InChIKey VGGSQFUCUMXWEO-UHFFFAOYSA-N
Kind: experiment
Temperature: 318 K
Tabular data in the source: 0
pressure (bar)	uptake (mmol/g)
0.000177	0.0704
0.000357	0.1141
0.000674	0.1741
0.00136	0.3375
0.002635	0.5827
0.003856	0.8114
0.006578	1.2308
0.008939	1.6774
0.013161	2.124
0.01789	2.4834
0.023834	2.8592
0.039573	3.4147
0.049636	3.8722
0.06569	4.199
0.1	4.6946
0.137753	5.005
0.168306	5.212
0.19756	5.3699
0.238177	5.4625
0.30493	5.6368
0.400959	5.8165
0.467627	5.9255
0.602698	6.0616
0.688811	6.1324
0.782168	6.1924
0.930465	6.2795
