Adsorption isotherm of Ethane on MOF-74-Co
DOI: 10.1002/slct.201601095
Article source: Figure 1
Adsorbate Ethane: InChIKey OTMSDBZUPAUEDD-UHFFFAOYSA-N
Kind: experiment
Temperature: 318 K
Tabular data in the source: 0
pressure (bar)	uptake (mmol/g)
0.001047	0.0387
0.0013	0.0607
0.001419	0.0571
0.001669	0.0534
0.002134	0.0206
0.002437	0.006
0.003065	0.0207
0.003726	0.0317
0.004223	0.0463
0.005331	0.0938
0.006455	0.0975
0.006901	0.0355
0.007949	0.072
0.012514	0.1488
0.014659	0.1269
0.018353	0.1634
0.021052	0.1781
0.028412	0.3023
0.043974	0.4374
0.059827	0.5945
0.063416	0.6712
0.092982	1.0437
0.098969	1.1021
0.122321	1.376
0.138548	1.6608
0.155024	1.8069
0.189234	2.183
0.209942	2.3619
0.231953	2.6139
0.276121	3.0156
0.327416	3.2821
0.347056	3.4063
0.414954	3.7678
0.479844	4.1548
0.502343	4.1768
0.688652	4.8742
0.68897	4.6077
0.956753	5.0167
1.06561	5.4001
1.2694	5.3891
1.66303	5.6849
1.82264	5.8128
2.51073	5.8785
2.83204	6.2327
4.66552	6.6016
8.24897	6.996
19.6834	7.3942
25.6862	7.4855
