Adsorption isotherm of Propene on Mn-MOF-74
DOI: 10.1002/slct.201601095
Article source: Figure S5
Adsorbate Propene: InChIKey QQONPFPTGQHPMA-UHFFFAOYSA-N
Kind: experiment
Temperature: 353 K
Tabular data in the source: 0
pressure (bar)	uptake (mmol/g)
0.000151	0.04
0.000223	0.0582
0.000341	0.0646
0.000509	0.0986
0.000757	0.1405
0.001136	0.224
0.001706	0.3371
0.002515	0.5194
0.003836	0.7966
0.00579	1.1766
0.009219	1.7622
0.013002	2.2884
0.019337	2.9609
0.029262	3.6592
0.044086	4.31
0.066267	4.8382
0.099403	5.2512
0.146218	5.5623
0.222485	5.8201
0.332889	6.0433
0.482948	6.2288
0.739946	6.427
1.11045	6.6282
1.68384	6.8326
2.49345	7.0025
