Adsorption isotherm of Ethane on MOF-74-Ni
DOI: 10.1002/slct.201601095
Article source: Figure 3
Adsorbate Ethane: InChIKey OTMSDBZUPAUEDD-UHFFFAOYSA-N
Kind: experiment
Temperature: 296 K
Tabular data in the source: 0
pressure (bar)	uptake (mmol/g)
0.001035	0.0325
0.001402	0.0371
0.00209	0.051
0.003149	0.0648
0.00481	0.067
0.006797	0.1204
0.010406	0.2039
0.030054	0.5457
0.051156	0.9586
0.0748	1.3863
0.097994	1.7697
0.124108	2.19
0.166725	2.5956
0.194044	2.9716
0.237575	3.4288
0.298401	3.768
0.394185	4.2104
0.512035	4.6381
0.736038	5.0953
0.980844	5.4566
1.35176	5.8547
1.86294	6.216
3.14413	6.6584
5.13216	7.0049
11.8413	7.4177
14.1416	7.5283
17.1751	7.602
26.1999	7.7494
32.0922	7.7789
