Adsorption isotherm of Ethane on Fe-MOF-74
DOI: 10.1002/slct.201601095
Article source: Figure 3
Adsorbate Ethane: InChIKey OTMSDBZUPAUEDD-UHFFFAOYSA-N
Kind: experiment
Temperature: 318 K
Tabular data in the source: 0
pressure (bar)	uptake (mmol/g)
0.003807	0.0422
0.006051	0.0511
0.008682	0.0842
0.012856	0.1093
0.019342	0.1669
0.029094	0.257
0.044453	0.3879
0.065826	0.5758
0.097454	0.8857
0.147741	1.4073
0.220445	2.0999
0.350268	3.0774
0.502458	3.9571
0.761728	4.6903
1.11892	5.2445
1.68267	5.5951
2.49172	5.7992
