Adsorption isotherm of Ethane on Mn-MOF-74
DOI: 10.1002/slct.201601095
Article source: Figure 3
Adsorbate Ethane: InChIKey OTMSDBZUPAUEDD-UHFFFAOYSA-N
Kind: experiment
Temperature: 353 K
Tabular data in the source: 0
pressure (bar)	uptake (mmol/g)
0.001049	0.0588
0.001164	0.048
0.00148	0.0414
0.001798	0.048
0.002182	0.048
0.002968	0.0283
0.003556	0.048
0.004317	0.0546
0.006196	0.0677
0.008656	0.0743
0.011311	0.0743
0.014106	0.0809
0.018557	0.0875
0.022233	0.0941
0.027353	0.0941
0.033659	0.0941
0.044279	0.1335
0.04863	0.1664
0.061038	0.1861
0.07168	0.1861
0.08997	0.2124
0.107078	0.2782
0.14568	0.3835
0.210475	0.6071
0.216172	0.6729
0.306196	1.0083
0.338532	1.0412
0.509214	1.4687
0.530029	1.5016
0.622444	1.791
0.755788	2.1264
0.766126	2.1856
0.942758	2.5474
0.994718	2.6
1.18386	2.9552
1.21591	2.9881
1.58928	3.409
1.72266	3.7445
1.99572	3.7642
2.47286	4.4943
2.77077	4.2443
3.71963	4.5798
5.19757	4.9942
7.51104	5.4283
11.5292	5.8492
19.169	6.2438
26.2543	6.428
30.6267	6.5069
