Adsorption isotherm of Ethane on Mn-MOF-74
DOI: 10.1002/slct.201601095
Article source: Figure 3
Adsorbate Ethane: InChIKey OTMSDBZUPAUEDD-UHFFFAOYSA-N
Kind: experiment
Temperature: 318 K
Tabular data in the source: 0
pressure (bar)	uptake (mmol/g)
0.00113	0.047
0.001332	0.0365
0.00157	0.0522
0.00171	0.047
0.001822	0.0574
0.002206	0.0522
0.002338	0.0522
0.002642	0.0522
0.002923	0.0418
0.003751	0.0365
0.003914	0.0365
0.004663	0.047
0.005325	0.047
0.006311	0.0574
0.006944	0.0626
0.009007	0.0887
0.011871	0.1148
0.012653	0.1253
0.018642	0.1671
0.030061	0.2558
0.042005	0.3706
0.064938	0.5377
0.085133	0.663
0.10927	0.8561
0.130197	1.0284
0.151915	1.3051
0.174421	1.4617
0.220343	1.9107
0.223872	1.8376
0.284381	2.2813
0.33358	2.6572
0.335351	2.8347
0.419179	2.9965
0.510387	3.7587
0.523962	3.4298
0.683439	3.8422
0.724937	4.6044
0.87277	4.2181
1.14446	4.6514
1.19454	5.2883
1.54099	5.0377
1.68733	5.7894
2.30781	5.4501
2.56685	6.0244
3.38298	5.8469
5.48529	6.2227
10.1042	6.6404
22.7667	7.0215
31.8127	7.1311
