Adsorption isotherm of Ethene on Mn-MOF-74
DOI: 10.1002/slct.201601095
Article source: Figure S2
Adsorbate Ethene: InChIKey VGGSQFUCUMXWEO-UHFFFAOYSA-N
Kind: experiment
Temperature: 318 K
Tabular data in the source: 0
pressure (bar)	uptake (mmol/g)
0.001173	0.1755
0.001721	0.2294
0.002537	0.3377
0.003915	0.5004
0.005745	0.7125
0.008752	1.0037
0.012894	1.374
0.019966	1.8975
0.028927	2.426
0.043311	3.0434
0.065675	3.6559
0.095543	4.2042
0.144877	4.7178
0.221615	5.1474
0.327869	5.493
0.501534	5.8138
0.741993	6.1347
1.07969	6.4061
1.64513	6.7369
2.45414	7.0824
