Adsorption isotherm of Ethene on MOF-74-Co
DOI: 10.1002/slct.201601095
Article source: Figure 1
Adsorbate Ethene: InChIKey VGGSQFUCUMXWEO-UHFFFAOYSA-N
Kind: experiment
Temperature: 318 K
Tabular data in the source: 0
pressure (bar)	uptake (mmol/g)
0.001155	0.1562
0.001684	0.2124
0.002575	0.3169
0.003814	0.4375
0.00574	0.6466
0.008435	0.8838
0.012891	1.2377
0.019925	1.7163
0.029047	2.2029
0.043351	2.794
0.064684	3.3812
0.096538	3.9483
0.148628	4.463
0.216721	4.8812
0.333734	5.2472
0.494311	5.5488
0.743704	5.8544
1.10154	6.1559
1.67032	6.4696
2.474	6.7993
