Adsorption isotherm of N-propane on MOF-74-Ni
DOI: 10.1002/slct.201601095
Article source: Figure S3
Adsorbate N-propane: InChIKey ATUOYWHBWRKTHZ-UHFFFAOYSA-N
Kind: experiment
Temperature: 318 K
Tabular data in the source: 0
pressure (bar)	uptake (mmol/g)
0.001005	0.0818
0.001135	0.1003
0.001682	0.1447
0.00255	0.202
0.003834	0.3093
0.005754	0.4555
0.008527	0.7481
0.012981	1.2146
0.019476	1.8868
0.029343	2.5979
0.044116	3.2496
0.064953	3.7607
0.101836	4.2476
0.149348	4.6105
0.218978	4.9364
0.334118	5.1919
0.500265	5.3918
0.758578	5.5325
1.13371	5.6287
1.67996	5.6915
2.52581	5.7396
