Adsorption isotherm of Propene on MOF-74-Ni
DOI: 10.1002/slct.201601095
Article source: Figure S3
Adsorbate Propene: InChIKey QQONPFPTGQHPMA-UHFFFAOYSA-N
Kind: experiment
Temperature: 318 K
Tabular data in the source: 0
pressure (bar)	uptake (mmol/g)
0.000105	0.0905
0.000149	0.1529
0.000218	0.2027
0.000338	0.3213
0.000496	0.4961
0.000761	0.7584
0.001153	1.0707
0.001655	1.508
0.002491	2.014
0.003849	2.6013
0.005752	3.1824
0.008596	3.7384
0.012847	4.2132
0.019072	4.6068
0.028695	4.9566
0.042884	5.2314
0.066283	5.5062
0.099747	5.7435
0.144145	5.9996
0.212618	6.2681
0.328549	6.4679
0.494425	6.699
0.738924	6.8426
1.14974	6.9736
1.68422	7.0734
2.50092	7.1545
