Adsorption isotherm of Propene on MOF-74-Co
DOI: 10.1002/slct.201601095
Article source: Figure 2
Adsorbate Propene: InChIKey QQONPFPTGQHPMA-UHFFFAOYSA-N
Kind: experiment
Temperature: 353 K
Tabular data in the source: 0
pressure (bar)	uptake (mmol/g)
0.000101	0.0334
0.000143	0.063
0.000208	0.0705
0.000321	0.0854
0.000529	0.0782
0.000748	0.1078
0.001245	0.1669
0.001863	0.2554
0.002486	0.3512
0.00402	0.5648
0.005848	0.9108
0.009014	1.3894
0.01311	1.9857
0.019445	2.6777
0.032048	3.4433
0.0453	4.0616
0.065902	4.577
0.103538	5.0555
0.149176	5.3648
0.238891	5.6299
0.350913	5.8435
0.525412	6.035
0.801863	6.2707
1.15558	6.4107
1.8151	6.5801
2.46888	6.698
