Adsorption isotherm of Ethane on MOF-74-Co
DOI: 10.1002/slct.201601095
Article source: Figure 2
Adsorbate Ethane: InChIKey OTMSDBZUPAUEDD-UHFFFAOYSA-N
Kind: experiment
Temperature: 273 K
Tabular data in the source: 0
pressure (bar)	uptake (mmol/g)
0.001082	0.0834
0.001359	0.0998
0.002019	0.1658
0.00295	0.1739
0.004421	0.2813
0.006513	0.43
0.009596	0.6533
0.014498	1.0089
0.021908	1.5134
0.032817	2.2166
0.050851	3.0438
0.076173	3.9704
0.114104	4.8804
0.169512	5.5753
0.251826	6.2205
0.383707	6.6588
0.594703	6.9648
0.86876	7.1467
1.38102	7.2954
1.83908	7.3614
