Adsorption isotherm of Ethane on MOF-74-Ni
DOI: 10.1002/slct.201601095
Article source: Figure 3
Adsorbate Ethane: InChIKey OTMSDBZUPAUEDD-UHFFFAOYSA-N
Kind: experiment
Temperature: 353 K
Tabular data in the source: 0
pressure (bar)	uptake (mmol/g)
0.001028	0.0191
0.001223	0.0251
0.001699	0.0134
0.002222	0.0192
0.002944	0.0308
0.004493	0.0307
0.00572	0.0541
0.008217	0.0657
0.014243	0.0656
0.01813	0.0656
0.022626	0.0655
0.035221	0.1005
0.043072	0.1181
0.047632	0.118
0.064417	0.1882
0.074148	0.1882
0.142102	0.4339
0.212471	0.6328
0.344271	0.9664
0.494311	1.4697
0.620726	1.8091
0.753703	2.1076
0.805935	2.2129
1.00531	2.5758
1.16493	2.8801
1.23709	2.9972
1.28795	3.0674
1.62817	3.401
1.75227	3.682
2.01697	3.7932
2.49862	4.3258
3.07681	4.2262
3.76097	4.6008
5.118	4.9929
7.54918	5.4552
10.9144	5.8298
15.9882	6.2101
26.4302	6.649
28.8403	6.7017
30.4299	6.7368
