Adsorption isotherm of Propene on MOF-74-Co
DOI: 10.1002/slct.201601095
Article source: Figure 1
Adsorbate Propene: InChIKey QQONPFPTGQHPMA-UHFFFAOYSA-N
Kind: experiment
Temperature: 318 K
Tabular data in the source: 0
pressure (bar)	uptake (mmol/g)
0.000102	0.0576
0.000147	0.0893
0.000219	0.1466
0.000346	0.2615
0.000493	0.4277
0.000736	0.6962
0.001152	1.176
0.001668	1.7583
0.002572	2.5134
0.003841	3.2749
0.00574	4.0172
0.00871	4.6123
0.013005	5.0345
0.019121	5.3479
0.029228	5.5844
0.043985	5.7569
0.066191	5.9038
0.095763	6.0572
0.144112	6.2105
0.222024	6.3638
0.326287	6.5044
0.483393	6.6385
0.744732	6.7726
1.16547	6.8747
1.65959	6.9384
2.57691	7.0149
