Adsorption isotherm of N-propane on MOF-74-Co
DOI: 10.1002/slct.201601095
Article source: Figure 1
Adsorbate N-propane: InChIKey ATUOYWHBWRKTHZ-UHFFFAOYSA-N
Kind: experiment
Temperature: 318 K
Tabular data in the source: 0
pressure (bar)	uptake (mmol/g)
0.001139	0.1126
0.001692	0.2008
0.002493	0.2729
0.003761	0.4175
0.005853	0.6667
0.008698	1.1815
0.012723	1.9863
0.019204	2.8876
0.029437	3.6198
0.044076	4.1347
0.063475	4.553
0.100346	4.931
0.144511	5.1963
0.226621	5.4455
0.349945	5.6223
0.48854	5.7427
0.737055	5.839
1.14683	5.8949
1.67726	5.9349
2.5698	5.9667
