Adsorption isotherm of Ethene on Fe-MOF-74
DOI: 10.1002/slct.201601095
Article source: Figure S4
Adsorbate Ethene: InChIKey VGGSQFUCUMXWEO-UHFFFAOYSA-N
Kind: experiment
Temperature: 353 K
Tabular data in the source: 0
pressure (bar)	uptake (mmol/g)
0.000191	-0.001
0.00036	0.0129
0.000665	0.0406
0.001348	0.0876
0.002847	0.1153
0.004048	0.154
0.006543	0.2534
0.009592	0.3941
0.014106	0.5183
0.018681	0.6728
0.024328	0.8604
0.0339	1.1142
0.049363	1.55
0.06193	1.7596
0.098175	2.4327
0.126125	2.7609
0.163719	3.1802
0.189409	3.4615
0.228192	3.7263
0.272145	3.9442
0.315864	4.1456
0.341507	4.2559
0.405882	4.5069
0.500726	4.7745
0.565588	4.9786
0.638999	5.1055
0.731644	5.2406
0.812643	5.3758
0.908657	5.4558
