Adsorption isotherm of N-propane on Mn-MOF-74
DOI: 10.1002/slct.201601095
Article source: Figure S2
Adsorbate N-propane: InChIKey ATUOYWHBWRKTHZ-UHFFFAOYSA-N
Kind: experiment
Temperature: 318 K
Tabular data in the source: 0
pressure (bar)	uptake (mmol/g)
0.001142	0.0857
0.001707	0.1162
0.00257	0.1844
0.003728	0.2768
0.005629	0.4205
0.008557	0.681
0.01314	1.1303
0.019516	1.8681
0.029363	2.8367
0.043722	3.697
0.06563	4.3065
0.098946	4.7646
0.147299	5.1448
0.230569	5.4558
0.333273	5.676
0.494083	5.84
0.760326	5.9434
1.15585	6.0381
1.76401	6.1026
2.51768	6.1648
