Adsorption isotherm of Ethene on Mn-MOF-74
DOI: 10.1002/slct.201601095
Article source: Figure S5
Adsorbate Ethene: InChIKey VGGSQFUCUMXWEO-UHFFFAOYSA-N
Kind: experiment
Temperature: 353 K
Tabular data in the source: 0
pressure (bar)	uptake (mmol/g)
0.001122	0.0553
0.001703	0.0606
0.002578	0.0784
0.003888	0.1036
0.005713	0.1414
0.008744	0.2268
0.012933	0.3222
0.019625	0.4677
0.028787	0.6833
0.044228	0.979
0.066819	1.3524
0.098855	1.8234
0.149005	2.4046
0.22182	3.0208
0.337909	3.6872
0.501996	4.2584
0.744046	4.8095
1.12409	5.278
1.69122	5.6739
2.52813	6.0223
