Adsorption isotherm of Ethene on MOF-74-Co
DOI: 10.1002/slct.201601095
Article source: Figure 2
Adsorbate Ethene: InChIKey VGGSQFUCUMXWEO-UHFFFAOYSA-N
Kind: experiment
Temperature: 296 K
Tabular data in the source: 0
pressure (bar)	uptake (mmol/g)
0.001013	0.2264
0.001293	0.4423
0.001939	0.6085
0.002855	0.8494
0.004364	1.2314
0.006465	1.6299
0.010069	2.2442
0.014639	2.8003
0.022657	3.4644
0.033986	4.1367
0.04942	4.6265
0.076489	5.108
0.115452	5.5065
0.165806	5.7972
0.253396	6.0381
0.380189	6.2873
0.566761	6.5282
0.871766	6.7609
1.23623	7.0266
1.9494	7.4003
2.90603	7.8237
