Adsorption isotherm of N-propane on MOF-74-Ni
DOI: 10.1002/slct.201601095
Article source: Figure S6
Adsorbate N-propane: InChIKey ATUOYWHBWRKTHZ-UHFFFAOYSA-N
Kind: experiment
Temperature: 353 K
Tabular data in the source: 0
pressure (bar)	uptake (mmol/g)
0.001127	0.0195
0.001667	0.0203
0.00258	0.0448
0.003818	0.0528
0.006005	0.1174
0.00849	0.1676
0.013038	0.2746
0.019966	0.4217
0.029221	0.6512
0.043451	0.9963
0.065479	1.5323
0.098651	2.198
0.148594	2.8449
0.218022	3.4162
0.333811	3.8698
0.497622	4.2431
0.749894	4.5599
1.12435	4.7918
1.68539	4.9671
2.48657	5.0811
