Adsorption isotherm of Ethane on MOF-74-Ni
DOI: 10.1002/slct.201601095
Article source: Figure 3
Adsorbate Ethane: InChIKey OTMSDBZUPAUEDD-UHFFFAOYSA-N
Kind: experiment
Temperature: 318 K
Tabular data in the source: 0
pressure (bar)	uptake (mmol/g)
0.001028	0.0191
0.001275	0.0228
0.001803	0.0411
0.002294	0.0522
0.002955	0.0669
0.004341	0.0815
0.005617	0.063
0.008754	0.0519
0.01128	0.074
0.018806	0.1845
0.023529	0.2102
0.031096	0.2581
0.045856	0.3871
0.066512	0.5566
0.07086	0.5824
0.1006	0.8847
0.119591	1.0174
0.157362	1.305
0.172663	1.3824
0.223357	1.9023
0.284053	2.2193
0.327793	2.6507
0.444222	3.0268
0.504081	3.4619
0.541627	3.3955
0.72778	3.7936
0.743019	4.2546
0.898669	4.1992
1.15213	4.9071
1.21759	4.5863
1.68461	5.32
1.69942	5.0435
2.22638	5.4048
2.38177	5.5781
3.2419	5.7882
4.75992	6.2195
7.89951	6.625
13.6773	7.0342
28.6418	7.4323
31.6957	7.436
