Adsorption isotherm of Propene on Mn-MOF-74
DOI: 10.1002/slct.201601095
Article source: Figure S2
Adsorbate Propene: InChIKey QQONPFPTGQHPMA-UHFFFAOYSA-N
Kind: experiment
Temperature: 318 K
Tabular data in the source: 0
pressure (bar)	uptake (mmol/g)
0.000104	0.0884
0.000152	0.2103
0.00022	0.2969
0.000346	0.521
0.000497	0.7686
0.000739	1.1929
0.001176	1.7822
0.001705	2.4106
0.002589	3.1648
0.00385	3.8679
0.005774	4.4806
0.008551	4.9874
0.013149	5.3489
0.019634	5.6044
0.029067	5.8127
0.043954	5.9504
0.066466	6.0959
0.101344	6.2297
0.150661	6.3988
0.22877	6.5914
0.326062	6.7723
0.505708	6.9375
0.758228	7.1223
1.11789	7.2639
1.7555	7.4173
2.48142	7.4921
