Adsorption isotherm of Ethane on MOF-74-Co
DOI: 10.1002/slct.201601095
Article source: Figure 2
Adsorbate Ethane: InChIKey OTMSDBZUPAUEDD-UHFFFAOYSA-N
Kind: experiment
Temperature: 353 K
Tabular data in the source: 0
pressure (bar)	uptake (mmol/g)
0.001038	0.0586
0.001303	0.0088
0.001795	-0.0079
0.002037	0.0251
0.003156	0.0663
0.003996	0.0662
0.004933	0.0661
0.007206	0.0659
0.010354	0.0657
0.012674	0.0656
0.016047	0.0821
0.019976	0.1151
0.024249	0.1398
0.031754	0.1562
0.040542	0.1644
0.043361	0.1726
0.060744	0.2469
0.064432	0.2717
0.103276	0.3708
0.141059	0.5279
0.149624	0.5278
0.158708	0.594
0.224182	0.8917
0.241824	0.9579
0.344509	1.3632
0.359335	1.3962
0.466445	1.8098
0.494766	1.967
0.561436	2.1904
0.681397	2.5792
0.760326	2.7943
0.820163	2.9597
0.995405	3.2989
1.06463	3.4561
1.18796	3.6877
1.30317	3.8035
1.76482	4.3743
1.77951	4.2171
2.33024	4.6059
2.4923	4.8789
4.60999	5.3668
6.56599	5.7555
10.0046	6.1194
18.3485	6.5825
24.2326	6.7727
27.0334	6.8471
