Adsorption isotherm of Ethane on Mn-MOF-74
DOI: 10.1002/slct.201601095
Article source: Figure 3
Adsorbate Ethane: InChIKey OTMSDBZUPAUEDD-UHFFFAOYSA-N
Kind: experiment
Temperature: 296 K
Tabular data in the source: 0
pressure (bar)	uptake (mmol/g)
0.001211	0.0151
0.001762	0.0414
0.002478	0.0677
0.003751	0.0809
0.005953	0.1269
0.009963	0.1796
0.013462	0.2388
0.019579	0.344
0.03823	0.6202
0.057122	1.0083
0.077714	1.4095
0.125864	2.2317
0.154917	2.6329
0.189365	3.0604
0.236211	3.4879
0.281125	3.7708
0.390301	4.2575
0.493401	4.5929
0.640619	5.0336
0.91939	5.4283
1.3555	5.836
2.19483	6.2307
3.77398	6.6187
8.5369	7.0068
12.0893	7.1318
17.0059	7.2239
29.6278	7.3028
