Adsorption isotherm of Ethane on Fe-MOF-74
DOI: 10.1002/slct.201601095
Article source: Figure 3
Adsorbate Ethane: InChIKey OTMSDBZUPAUEDD-UHFFFAOYSA-N
Kind: experiment
Temperature: 353 K
Tabular data in the source: 0
pressure (bar)	uptake (mmol/g)
0.001146	0.0181
0.001702	0.0392
0.002528	0.0296
0.003831	0.0507
0.006159	0.0514
0.008622	0.052
0.012308	0.0627
0.019213	0.0839
0.03029	0.1256
0.041562	0.1261
0.06298	0.1984
0.098333	0.3321
0.146083	0.4658
0.214981	0.7429
0.325912	1.0813
0.504197	1.6758
0.757356	2.3624
1.16065	3.2025
1.72624	4.0017
2.5171	4.6984
