Adsorption isotherm of Ethene on MOF-74-Co
DOI: 10.1002/slct.201601095
Article source: Figure 2
Adsorbate Ethene: InChIKey VGGSQFUCUMXWEO-UHFFFAOYSA-N
Kind: experiment
Temperature: 273 K
Tabular data in the source: 0
pressure (bar)	uptake (mmol/g)
0.001259	1.3878
0.001865	1.8898
0.002895	2.486
0.004256	3.0717
0.006256	3.7514
0.010186	4.3476
0.014282	4.8287
0.022356	5.2367
0.033643	5.5819
0.046806	5.833
0.075007	6.0529
0.115585	6.1996
0.171277	6.4083
0.254566	6.56
0.387793	6.7381
0.564937	6.9755
0.860597	7.2787
1.27909	7.6675
2.00724	8.1486
2.81061	8.6295
