Adsorption isotherm of N-propane on Fe-MOF-74
DOI: 10.1002/slct.201601095
Article source: Figure S4
Adsorbate N-propane: InChIKey ATUOYWHBWRKTHZ-UHFFFAOYSA-N
Kind: experiment
Temperature: 353 K
Tabular data in the source: 0
pressure (bar)	uptake (mmol/g)
0.001146	0.052
0.001743	0.0539
0.002537	0.0748
0.003751	0.0974
0.005612	0.1356
0.008608	0.2034
0.012877	0.3057
0.019989	0.5156
0.02896	0.7809
0.043251	1.2456
0.065479	1.9097
0.101298	2.7055
0.148047	3.3955
0.222946	4.0127
0.326889	4.4584
0.498196	4.8346
0.747653	5.1034
1.13736	5.3081
1.70451	5.4694
2.50265	5.5805
