Adsorption isotherm of N-propane on Mn-MOF-74
DOI: 10.1002/slct.201601095
Article source: Figure S5
Adsorbate N-propane: InChIKey ATUOYWHBWRKTHZ-UHFFFAOYSA-N
Kind: experiment
Temperature: 353 K
Tabular data in the source: 0
pressure (bar)	uptake (mmol/g)
0.001132	0.052
0.001787	0.0571
0.002608	0.0674
0.003895	0.0933
0.005749	0.1227
0.008616	0.1833
0.012936	0.2717
0.019418	0.4103
0.043672	0.9929
0.065993	1.6033
0.09906	2.4062
0.147435	3.1779
0.223512	3.8386
0.330979	4.3432
0.499344	4.7455
0.753356	5.0593
1.12694	5.3003
1.7002	5.4667
2.53105	5.5949
