Adsorption isotherm of N-propane on MOF-74-Co
DOI: 10.1002/slct.201601095
Article source: Figure 2
Adsorbate N-propane: InChIKey ATUOYWHBWRKTHZ-UHFFFAOYSA-N
Kind: experiment
Temperature: 353 K
Tabular data in the source: 0
pressure (bar)	uptake (mmol/g)
0.001039	0.0536
0.001345	0.0845
0.001639	0.0744
0.002364	0.0747
0.002635	0.0748
0.003994	0.1058
0.005875	0.1777
0.008474	0.2597
0.013101	0.4032
0.019467	0.6284
0.028927	1.0172
0.043531	1.6613
0.066558	2.4859
0.098651	3.1817
0.147062	3.7101
0.220648	4.1999
0.329003	4.5673
0.505941	4.8896
0.731139	5.1217
1.15984	5.3024
1.72862	5.4444
2.57691	5.522
