Adsorption isotherm of Propene on Fe-MOF-74
DOI: 10.1002/slct.201601095
Article source: Figure S1
Adsorbate Propene: InChIKey QQONPFPTGQHPMA-UHFFFAOYSA-N
Kind: experiment
Temperature: 318 K
Tabular data in the source: 0
pressure (bar)	uptake (mmol/g)
0.00015	0.1676
0.000221	0.3022
0.000333	0.5062
0.000501	0.8887
0.000758	1.3901
0.00113	2.0501
0.001721	2.8043
0.002497	3.5287
0.003905	4.1789
0.005788	4.6257
0.00867	4.9636
0.012915	5.2023
0.018737	5.4211
0.028067	5.6251
0.043391	5.7796
0.067453	5.9787
0.100485	6.2025
0.142692	6.3618
0.228981	6.5213
0.323519	6.6657
0.505475	6.7657
0.740969	6.8259
1.13946	6.8961
1.67958	6.9316
2.47514	6.967
