Adsorption isotherm of Ethane on MOF-74-Co
DOI: 10.1002/slct.201601095
Article source: Figure 2
Adsorbate Ethane: InChIKey OTMSDBZUPAUEDD-UHFFFAOYSA-N
Kind: experiment
Temperature: 296 K
Tabular data in the source: 0
pressure (bar)	uptake (mmol/g)
0.001038	0.0586
0.001368	0.0575
0.00145	0.0679
0.001973	0.0678
0.002452	0.1042
0.00283	0.078
0.003976	0.1404
0.004397	0.0987
0.005583	0.1611
0.006583	0.1506
0.008009	0.2026
0.010065	0.2494
0.015146	0.3274
0.018043	0.3899
0.023153	0.5149
0.032174	0.8014
0.044238	1.0254
0.04998	1.1921
0.057677	1.3849
0.076401	1.807
0.083176	1.953
0.089105	2.2188
0.110179	2.5835
0.116815	2.6044
0.13125	2.9588
0.166648	3.3757
0.172942	3.4278
0.191293	3.7822
0.24027	4.1887
0.258821	4.2877
0.385301	5.1528
0.389404	5.0329
0.524083	5.4029
0.573588	5.8719
0.72061	5.7989
0.890841	6.393
1.06709	6.2417
1.25777	6.8046
1.64892	6.6064
1.94357	7.0651
2.92483	6.9919
2.97167	7.1952
6.62369	7.4137
8.86748	7.5178
12.4566	7.5959
21.1787	7.6946
28.9668	7.7414
