Adsorption isotherm of Propene on Fe-MOF-74
DOI: 10.1002/slct.201601095
Article source: Figure S4
Adsorbate Propene: InChIKey QQONPFPTGQHPMA-UHFFFAOYSA-N
Kind: experiment
Temperature: 353 K
Tabular data in the source: 0
pressure (bar)	uptake (mmol/g)
0.000148	0.0221
0.000224	0.0422
0.000339	0.0643
0.000505	0.1122
0.000758	0.1621
0.001134	0.2716
0.001704	0.4089
0.00254	0.6554
0.003859	0.9793
0.005692	1.4362
0.008798	2.0421
0.013005	2.7433
0.019516	3.4564
0.029282	4.1377
0.044025	4.7277
0.065615	5.2005
0.096783	5.5284
0.143946	5.8126
0.218223	6.0333
0.327341	6.2043
0.498425	6.3694
0.747481	6.5166
1.1285	6.6499
1.6819	6.7573
2.51189	6.8331
