Adsorption isotherm of Propene on MOF-74-Ni
DOI: 10.1002/slct.201601095
Article source: Figure S6
Adsorbate Propene: InChIKey QQONPFPTGQHPMA-UHFFFAOYSA-N
Kind: experiment
Temperature: 353 K
Tabular data in the source: 0
pressure (bar)	uptake (mmol/g)
0.000104	0.0329
0.000152	0.0405
0.000228	0.0482
0.000346	0.0583
0.000502	0.0809
0.000776	0.106
0.001168	0.1859
0.001689	0.2609
0.002576	0.3981
0.003834	0.5728
0.0058	0.882
0.008541	1.1663
0.012575	1.6002
0.019584	2.1088
0.029295	2.6548
0.044535	3.2432
0.068077	3.7768
0.101018	4.3053
0.147537	4.6794
0.22136	5.0459
0.333043	5.3427
0.485177	5.6594
0.739946	5.9138
1.11918	6.1458
1.67494	6.3453
2.50034	6.5599
