Adsorption isotherm of N-propane on Fe-MOF-74
DOI: 10.1002/slct.201601095
Article source: Figure S1
Adsorbate N-propane: InChIKey ATUOYWHBWRKTHZ-UHFFFAOYSA-N
Kind: experiment
Temperature: 318 K
Tabular data in the source: 0
pressure (bar)	uptake (mmol/g)
0.001143	0.1032
0.001702	0.1275
0.002557	0.1965
0.003869	0.293
0.005834	0.4548
0.008652	0.754
0.012826	1.3487
0.019324	2.2319
0.043162	3.9709
0.064834	4.545
0.097096	4.9094
0.143021	5.2911
0.222126	5.5834
0.330522	5.7864
0.495108	5.9413
0.724603	6.0515
1.11096	6.1343
1.6531	6.1964
2.48485	6.2345
