Adsorption isotherm of Nitrogen on TPB-DABI-COF (THF)
DOI: 10.1002/anie.202101400
Article source: Figure S4
Adsorbate Nitrogen: InChIKey IJGRMHOSHXDMSA-UHFFFAOYSA-N
Kind: experiment
Temperature: 77 K
Tabular data in the source: 0
pressure (bar)	uptake (cm3(STP)/g)
0.002576	38.5814
0.007536	64.6562
0.031509	101.813
0.052175	119.413
0.078627	137.014
0.104253	149.399
0.127399	165.696
0.151371	174.822
0.17865	185.904
0.201796	197.638
0.229902	211.979
0.254701	287.596
0.276194	293.462
0.304299	299.981
0.329925	303.892
0.355551	307.804
0.38283	311.063
0.404323	316.93
0.433255	318.233
0.458881	321.493
0.48616	323.448
0.508479	326.056
0.537412	328.012
0.559731	331.271
0.583703	335.182
0.611809	336.486
0.638262	338.441
0.661408	341.701
0.687033	346.264
0.715966	348.219
0.738285	350.175
0.762258	354.086
0.78871	356.694
0.810203	359.301
0.837482	365.168
0.861454	367.776
0.886253	371.035
0.914359	377.554
0.935852	382.769
0.965611	398.413
0.989583	429.051
0.99041	472.075
1.01025	601.797
1.01025	603.752
0.991237	472.727
0.966437	416.014
0.939158	399.065
0.917666	388.635
0.887907	383.42
0.864761	382.117
0.838308	377.554
0.809376	372.339
0.78623	370.383
0.762258	367.124
0.734978	364.516
0.710179	361.909
0.683727	361.257
0.660581	358.649
0.634955	357.997
0.610983	356.042
0.583703	354.086
0.559731	353.434
0.532452	350.827
0.501866	344.96
0.48368	344.96
0.459708	341.701
0.431602	337.79
0.407629	338.441
0.379524	335.834
0.356378	331.923
0.334885	327.36
0.305126	322.797
0.278674	319.537
0.251395	316.93
0.231555	241.965
0.202623	228.927
0.17865	212.631
0.151371	204.156
0.129879	193.726
0.104253	181.993
0.076147	164.392
0.024895	129.191
0.007536	108.331
