Adsorption isotherm of Nitrogen on TPB-DABI-COF (HCl)
DOI: 10.1002/anie.202101400
Article source: Figure S4
Adsorbate Nitrogen: InChIKey IJGRMHOSHXDMSA-UHFFFAOYSA-N
Kind: experiment
Temperature: 77 K
Tabular data in the source: 0
pressure (bar)	uptake (cm3(STP)/g)
0.010843	64.0043
0.032335	84.8642
0.070361	107.028
0.081107	113.546
0.100946	119.413
0.120786	129.843
0.140625	137.014
0.164597	144.836
0.18361	150.051
0.203863	156.57
0.253048	221.757
0.307606	237.402
0.360511	241.313
0.424989	244.572
0.457228	248.483
0.507653	252.395
0.558078	253.698
0.608503	255.002
0.661408	258.261
0.709353	260.869
0.760604	262.825
0.810203	269.343
0.835828	269.995
0.863108	270.647
0.888733	274.558
0.911053	279.121
0.938332	284.336
0.960651	288.899
0.987103	300.633
0.993717	308.455
1.00364	324.752
1.00529	348.219
1.00612	350.827
0.99785	334.53
0.989583	324.752
0.968917	306.5
0.942465	297.374
0.901133	286.944
0.865587	284.336
0.842442	281.729
0.817642	280.425
0.762258	276.514
0.712659	273.906
0.657274	270.647
0.608503	271.299
0.560558	269.343
0.510959	266.736
0.458881	262.825
0.405149	261.521
0.358858	257.61
0.308846	256.306
0.258834	250.439
0.195183	177.43
0.138145	155.918
