Adsorption isotherm of Nitrogen on TPB-DABI-COF
DOI: 10.1002/anie.202101400
Article source: Figure 3
Adsorbate Nitrogen: InChIKey IJGRMHOSHXDMSA-UHFFFAOYSA-N
Kind: experiment
Temperature: 77 K
Tabular data in the source: 0
pressure (bar)	uptake (cm3(STP)/g)
0.002883	53.065
0.001913	80.0645
0.011536	102.218
0.02997	125.064
0.054583	145.14
0.078316	164.525
0.104708	179.755
0.131972	197.755
0.151762	210.216
0.179471	226.831
0.205842	248.292
0.22598	289.138
0.24968	318.906
0.281391	324.445
0.305175	328.599
0.328076	333.445
0.358915	336.214
0.382697	341.06
0.406481	345.214
0.430271	347.291
0.455825	349.367
0.479606	354.214
0.507806	355.598
0.532474	359.06
0.5567	362.867
0.579163	366.675
0.605593	370.136
0.6329	374.982
0.655807	377.752
0.682247	378.444
0.709561	381.213
0.734235	382.598
0.758021	386.059
0.783577	387.444
0.811763	392.982
0.833789	395.751
0.859329	401.982
0.885752	407.52
0.908636	417.212
0.933731	424.828
0.957899	446.289
0.982812	508.942
1.00666	681.29
0.983097	556.364
0.958675	478.134
0.936734	449.75
0.912995	431.751
0.883935	424.135
0.860162	416.52
0.834622	410.289
0.812601	406.136
0.783524	403.367
0.757971	401.29
0.733308	396.444
0.707754	394.367
0.68131	395.059
0.655762	391.598
0.631973	388.828
0.605098	386.751
0.579987	383.982
0.555317	381.213
0.53241	378.444
0.504217	374.982
0.479547	372.213
0.457083	368.752
0.428454	363.906
0.403791	359.06
0.38	356.983
0.354456	352.137
0.329788	348.675
0.303349	347.983
0.277807	342.445
0.252703	337.598
0.229437	309.907
0.199616	265.6
0.17677	244.139
0.152155	224.754
0.126638	211.601
0.102891	196.37
0.075622	179.755
0.050132	158.294
0.025538	132.679
0.01062	112.602
