Adsorption isotherm of Nitrogen on TPB-DABI-COF (Fenton)
DOI: 10.1002/anie.202101400
Article source: Figure S5
Adsorbate Nitrogen: InChIKey IJGRMHOSHXDMSA-UHFFFAOYSA-N
Kind: experiment
Temperature: 77 K
Tabular data in the source: 0
pressure (bar)	uptake (cm3(STP)/g)
0.004056	34.8116
0.004056	56.5673
0.013878	75.4224
0.028611	92.1018
0.052552	106.606
0.078335	119.297
0.104732	130.537
0.128059	141.415
0.156297	153.018
0.180852	162.445
0.204793	171.873
0.231189	186.377
0.253903	248.018
0.281527	253.82
0.306082	258.171
0.332444	261.636
0.354612	264.657
0.381043	268.686
0.405768	272.211
0.431346	274.226
0.457777	276.744
0.483355	279.262
0.50808	282.787
0.533658	284.298
0.559236	287.32
0.585667	290.341
0.610393	291.348
0.635118	293.363
0.660696	295.881
0.687979	298.903
0.713557	300.413
0.735725	303.435
0.761303	305.953
0.786028	307.967
0.811606	310.485
0.837185	313.507
0.861057	315.018
0.888341	321.061
0.914771	325.594
0.938644	333.148
0.965075	344.227
0.990653	436.387
1.01026	586.965
0.992358	437.394
0.965075	361.35
0.940349	348.256
0.913919	340.702
0.890898	335.162
0.864468	331.133
0.838037	328.615
0.812459	327.104
0.788586	322.572
0.762156	320.558
0.73743	321.061
0.712278	319.299
0.6867	317.536
0.661549	314.011
0.635118	313.004
0.608687	311.493
0.582257	309.982
0.558384	307.967
0.531953	305.449
0.50808	304.442
0.48165	301.421
0.456924	300.917
0.434757	298.903
0.408326	297.392
0.382322	293.363
0.358875	291.348
0.33415	289.838
0.308572	287.823
0.282994	284.802
0.256563	280.269
0.230985	227.39
0.206686	206.239
0.180681	194.656
0.155956	183.577
0.128673	171.994
0.103947	160.411
0.077517	148.324
0.054496	132.713
0.029771	113.072
0.013145	96.4529
