Adsorption isotherm of Nitrogen on TPB-DABI-POP
DOI: 10.1002/anie.202101400
Article source: Figure S14
Adsorbate Nitrogen: InChIKey IJGRMHOSHXDMSA-UHFFFAOYSA-N
Kind: experiment
Temperature: 77 K
Tabular data in the source: 0
pressure (bar)	uptake (cm3(STP)/g)
0.005575	16.1712
0.00644	22.5071
0.009069	35.1778
0.026111	41.978
0.052148	47.7904
0.07639	53.1178
0.100624	59.9077
0.125772	63.7714
0.150918	68.1226
0.175163	72.9626
0.203904	77.3086
0.227231	85.5622
0.251029	89.9153
0.276629	93.2909
0.303583	95.6896
0.32874	98.0908
0.352989	101.956
0.378143	104.845
0.4033	107.246
0.428461	108.672
0.455415	111.071
0.477878	112.988
0.504837	114.412
0.529089	117.79
0.554248	119.703
0.57941	121.13
0.603659	124.995
0.628824	125.934
0.653076	129.311
0.680926	132.196
0.706085	134.11
0.730337	137.487
0.755491	140.376
0.781541	143.751
0.807591	147.126
0.835436	150.986
0.859683	155.338
0.886606	163.587
0.911731	171.838
0.935928	185.452
0.959135	216.13
0.987518	287.261
1.00276	461.757
1.00455	462.729
0.984363	372.575
0.960603	277.55
0.93389	230.303
0.91154	207.424
0.88375	193.327
0.857729	184.59
0.835298	176.822
0.809248	173.447
0.784094	170.559
0.757148	166.697
0.732898	162.832
0.706838	161.407
0.683487	157.541
0.660126	155.625
0.632275	152.74
0.60621	152.29
0.581056	149.401
0.555897	147.487
0.530738	145.574
0.503778	144.15
0.477728	140.775
0.455264	139.345
0.426512	136.949
0.405842	136.003
0.37889	133.117
0.351934	131.206
0.328567	130.265
0.305211	127.373
0.279159	124.486
0.254	122.572
0.227955	118.222
0.202825	110.946
0.176777	107.084
0.152535	101.756
0.125592	97.4077
0.095957	92.088
0.076209	86.7541
0.051965	81.9142
0.025053	71.7158
0.00894	59.0645
