Adsorption isotherm of Nitrogen on TPB-DABI-COF (pristine COF)
DOI: 10.1002/anie.202101400
Article source: Figure S4
Adsorbate Nitrogen: InChIKey IJGRMHOSHXDMSA-UHFFFAOYSA-N
Kind: experiment
Temperature: 77 K
Tabular data in the source: 0
pressure (bar)	uptake (cm3(STP)/g)
-0.000135	64.9169
0.002245	86.5069
0.007602	100.587
0.010578	112.321
0.026053	133.911
0.052836	158.317
0.076048	176.621
0.102236	193.518
0.134375	209.476
0.153024	222.409
0.177824	242.617
0.205103	264.128
0.229075	288.247
0.253874	320.841
0.277847	326.056
0.305126	327.36
0.329925	334.53
0.358858	339.745
0.383657	342.353
0.406803	344.308
0.435735	346.264
0.455574	352.783
0.485333	356.694
0.509306	356.042
0.530799	357.997
0.558078	361.909
0.587837	366.472
0.609329	369.079
0.634955	372.339
0.667194	376.902
0.689513	381.465
0.711833	384.072
0.738698	383.42
0.764737	387.983
0.787057	391.895
0.817642	395.154
0.839962	397.762
0.862281	401.673
0.885427	408.843
0.912706	414.71
0.942465	426.444
0.962718	445.674
0.99041	506.624
1.01078	680.021
1.01078	680.021
0.98793	557.47
0.963957	477.941
0.938332	447.304
0.915186	432.962
0.887907	419.925
0.863108	414.71
0.838308	410.799
0.814336	408.843
0.789537	401.673
0.763911	397.11
0.737458	397.11
0.705219	395.806
0.663061	394.502
0.634955	388.635
0.609329	382.769
0.581224	382.769
0.558904	381.465
0.532452	376.902
0.506826	374.946
0.480374	372.339
0.458054	368.427
0.433255	362.561
0.407629	359.301
0.381177	356.694
0.357204	352.131
0.329925	347.568
0.305126	344.96
0.278674	339.093
0.253874	337.79
0.229902	309.107
