Adsorption isotherm of Nitrogen on TPB-DABI-COF (boiling water)
DOI: 10.1002/anie.202101400
Article source: Figure S4
Adsorbate Nitrogen: InChIKey IJGRMHOSHXDMSA-UHFFFAOYSA-N
Kind: experiment
Temperature: 77 K
Tabular data in the source: 0
pressure (bar)	uptake (cm3(STP)/g)
0.003403	34.6702
0.004229	53.5744
0.030682	76.3898
0.055481	89.4272
0.07532	104.42
0.104253	117.458
0.125745	128.539
0.154678	142.881
0.180304	153.962
0.205103	161.133
0.230729	172.867
0.252221	188.511
0.281154	247.18
0.304299	251.743
0.328272	258.261
0.352245	261.521
0.381177	264.128
0.408456	268.691
0.432429	271.299
0.457228	273.906
0.480374	275.21
0.507653	277.818
0.530799	281.077
0.557251	284.988
0.57957	285.64
0.607676	289.551
0.633302	291.507
0.659754	292.811
0.684553	295.418
0.712659	298.025
0.734978	299.329
0.762258	301.285
0.785403	305.196
0.811856	305.848
0.839962	307.152
0.866414	310.411
0.886253	316.278
0.915186	320.189
0.938332	324.752
0.963131	331.271
0.988757	345.612
1.01108	376.902
0.962304	439.481
0.935025	360.605
0.912706	347.568
0.888733	337.138
0.863934	333.226
0.838308	333.226
0.811856	328.663
0.78623	325.404
0.762258	322.797
0.735805	320.189
0.711833	316.93
0.686207	317.582
0.663887	314.322
0.635782	313.344
0.611809	313.018
0.586183	311.715
0.561384	308.455
0.532452	306.5
0.508479	305.848
0.48368	302.589
0.457228	301.937
0.432429	299.329
0.406803	298.025
0.384483	296.722
0.355551	295.418
0.330752	293.462
0.305953	288.247
0.281567	285.314
0.253874	284.336
0.205103	225.668
0.177824	206.112
0.153851	194.378
0.130705	184.6
0.105906	171.563
0.076974	157.222
0.053001	148.747
