Adsorption isotherm of Nitrogen on TPB-DABI-COF (neat H3PO4)
DOI: 10.1002/anie.202101400
Article source: Figure S4
Adsorbate Nitrogen: InChIKey IJGRMHOSHXDMSA-UHFFFAOYSA-N
Kind: experiment
Temperature: 77 K
Tabular data in the source: 0
pressure (bar)	uptake (cm3(STP)/g)
0.000923	63.3525
0.00175	75.0861
0.013322	88.7754
0.013322	106.376
0.029855	127.888
0.052175	145.488
0.0778	160.481
0.105079	175.474
0.130705	193.074
0.153851	211.327
0.180304	229.579
0.204276	255.654
0.229902	271.951
0.252221	281.729
0.280327	288.899
0.305126	297.374
0.330752	305.196
0.357204	309.107
0.381177	315.626
0.405149	324.1
0.431602	329.315
0.460534	335.834
0.480374	343.656
0.505999	350.827
0.532452	353.434
0.560558	358.649
0.582877	363.864
0.611809	372.99
0.636608	378.205
0.661408	383.42
0.683727	391.243
0.711006	395.806
0.735805	404.932
0.764737	414.058
0.785403	421.229
0.812683	428.399
0.834175	441.437
0.863108	451.215
0.891213	462.297
0.914359	477.941
0.939985	493.586
0.962304	521.617
0.988757	577.678
1.00694	695.014
1.01025	695.014
0.964784	603.752
0.935852	519.661
0.917666	481.853
0.89204	465.556
0.863934	457.082
0.835002	446.652
0.815162	442.089
0.78871	434.266
0.763084	425.14
0.737458	421.881
0.711006	412.755
0.686207	407.54
0.657274	401.673
0.635782	397.762
0.607676	392.547
0.58205	384.724
0.559731	381.465
0.534932	374.294
0.505173	371.035
0.482854	363.212
0.456401	357.346
0.432429	351.479
0.406803	346.264
0.381177	337.138
0.355551	332.575
0.329099	329.315
0.307606	324.1
0.2795	313.67
0.256354	305.848
0.228249	276.514
0.209236	261.521
0.176997	241.313
0.150545	225.016
0.129879	211.327
0.104253	189.815
0.072014	172.215
