Adsorption isotherm of Nitrogen on H3PO4@TPB-DABI-COF
DOI: 10.1002/anie.202101400
Article source: Figure 3
Adsorbate Nitrogen: InChIKey IJGRMHOSHXDMSA-UHFFFAOYSA-N
Kind: experiment
Temperature: 77 K
Tabular data in the source: 0
pressure (bar)	uptake (cm3(STP)/g)
0.005708	-1.62637
0.035677	-2.31867
0.060349	-0.241783
0.090314	0.450513
0.112349	0.450513
0.134385	0.104365
0.165232	0.450513
0.189911	0.450513
0.217229	2.18125
0.243669	2.5274
0.271874	2.5274
0.299197	2.5274
0.32564	2.18125
0.357364	3.91199
0.38469	3.2197
0.408485	3.91199
0.434045	3.91199
0.460485	4.60429
0.488687	5.29658
0.518654	5.29658
0.543328	6.68117
0.574182	5.29658
0.60503	5.29658
0.636756	6.68117
0.667605	6.68117
0.703746	5.29658
0.736358	5.29658
0.764119	5.98888
0.79894	4.25814
0.828908	3.91199
0.857986	6.33502
0.888838	5.29658
0.925857	5.29658
0.961994	5.29658
0.98844	3.91199
1.00783	5.29658
0.983147	5.15812
0.959935	5.8735
0.933862	5.58504
0.911464	4.14276
0.883552	4.71967
0.858583	3.56584
0.832141	3.56584
0.807899	4.71967
0.783659	5.29658
0.758692	3.56584
0.732252	2.98893
0.708012	3.56584
0.681566	4.71967
0.658797	4.71967
0.630881	6.45041
0.608846	6.45041
0.583883	3.56584
0.555236	4.14276
0.532466	4.14276
0.506761	3.56584
0.481052	4.14276
0.456812	4.71967
0.431847	2.41202
0.406136	3.56584
0.378954	5.29658
0.353985	4.14276
0.329016	2.98893
0.30331	2.41202
0.280545	1.25819
0.251892	3.56584
0.229863	1.8351
0.203425	0.681278
0.176983	0.681278
0.150538	1.8351
0.126302	1.25819
0.099862	0.681278
0.077093	0.681278
0.053598	-2.20329
0.026422	-2.20329
0.010263	-2.20329
