Adsorption isotherm of Water on Silicalite MFI
DOI: 10.1021/La7011205
Adsorbate Water: InChIKey XLYOFNOQVPJJNP-UHFFFAOYSA-N
Temperature: 300 K
Tabular data in the source: 0
pressure (bar)	uptake (molecules/unitcell)
0.000393258	0.615385
0.000720974	0.703297
0.00111423	0.835165
0.00144195	0.879121
0.00170412	0.967033
0.00203184	1.0989
0.00249064	1.14286
0.0028839	1.36264
0.00340824	1.40659
0.00393258	1.45055
0.00445693	1.58242
0.00511236	1.67033
0.00570225	1.89011
0.00629213	1.97802
0.00701311	2.10989
0.00773408	2.28571
0.00838951	2.63736
0.00930712	3.07692
0.0100281	3.47253
0.0108801	4.21978
0.0117322	5.93407
0.0126498	6.54945
0.0135674	6.63736
0.0156648	6.94505
0.0176311	7.16484
0.0186142	7.38462
0.0197285	7.51648
