Adsorption isotherm of Water on Silicalite MFI
DOI: 10.1021/La7011205
Adsorbate Water: InChIKey XLYOFNOQVPJJNP-UHFFFAOYSA-N
Temperature: 300 K
Tabular data in the source: 0
pressure (bar)	uptake (molecules/unitcell)
0.00373596	0.307692
0.00570225	0.307692
0.00734082	0.351648
0.00904494	0.43956
0.0109457	0.527473
0.012912	0.615385
0.0146161	0.703297
0.0161236	0.791209
0.0182865	0.923077
0.0199251	0.967033
0.0219569	1.05495
0.0233989	1.23077
0.0250375	1.40659
0.0267416	1.67033
0.0285112	1.97802
0.0296255	2.72527
0.0306742	3.42857
0.0317884	6.24176
0.0320506	8.79121
0.0323127	10.7253
0.0324438	14.1099
0.0325094	16.7033
