Adsorption isotherm of Water on Silicalite MFI
DOI: 10.1021/La7011205
Adsorbate Water: InChIKey XLYOFNOQVPJJNP-UHFFFAOYSA-N
Temperature: 300 K
Tabular data in the source: 0
pressure (bar)	uptake (molecules/unitcell)
6.55e-05	0.659341
0.000131086	0.263736
0.000262172	1.01099
0.00117978	1.0989
0.00268727	1.23077
0.00445693	1.40659
0.00655431	1.62637
0.00845506	1.84615
0.0100936	1.97802
0.0118633	2.06593
0.0139607	2.15385
0.0162547	2.24176
0.018221	2.32967
0.0200562	2.41758
0.0216948	2.41758
0.0237921	2.54945
0.0262172	2.59341
0.0284457	2.68132
0.0300843	2.81319
0.0311985	2.76923
0.0330993	2.76923
0.0340169	2.76923
0.0349345	2.76923
