Adsorption isotherm of Water on Silicalite MFI
DOI: 10.1021/La7011205
Adsorbate Water: InChIKey XLYOFNOQVPJJNP-UHFFFAOYSA-N
Temperature: 300 K
Tabular data in the source: 0
pressure (bar)	uptake (molecules/unitcell)
0.000196629	1.97802
0.000327715	2.46154
0.000524345	2.76923
0.000786517	3.38462
0.00124532	3.56044
0.00150749	3.82418
0.00190075	3.86813
0.00255618	4.08791
0.00353933	4.57143
0.00445693	4.96703
0.00570225	5.71429
0.00720974	6.06593
0.00878277	6.46154
0.0103558	6.72527
0.0116667	7.03297
0.0122566	7.6044
0.0131742	7.69231
0.0140918	7.95604
0.0156648	8.43956
0.0173034	9.05495
0.0181554	9.8022
0.0188109	10.4615
