Adsorption isotherm of Water on Silicalite MFI
DOI: 10.1021/La7011205
Adsorbate Water: InChIKey XLYOFNOQVPJJNP-UHFFFAOYSA-N
Temperature: 300 K
Tabular data in the source: 0
pressure (bar)	uptake (molecules/unitcell)
0.00216292	2.46154
0.00386704	3.12088
0.00576779	3.64835
0.0080618	4.3956
0.00924157	4.7033
0.01147	5.31868
0.0130431	5.71429
0.0148783	6.37363
0.0163202	6.85714
0.0177622	7.38462
0.0197285	8.17582
0.0213015	8.7033
0.0228745	9.36264
0.0248408	10.0659
