Adsorption isotherm of Water on Silicalite MFI
DOI: 10.1021/La7011205
Adsorbate Water: InChIKey XLYOFNOQVPJJNP-UHFFFAOYSA-N
Temperature: 300 K
Tabular data in the source: 0
pressure (bar)	uptake (molecules/unitcell)
0.000524345	0.175824
0.000786517	0.527473
0.000983146	1.0989
0.00124532	1.53846
0.00301498	2.02198
0.00399813	2.46154
0.00419476	2.98901
0.00491573	3.25275
0.00740637	3.56044
0.00871723	3.6044
0.00963483	3.6044
0.0110112	3.69231
0.0123876	3.73626
0.0138951	3.86813
0.0157303	4
0.0172378	4.08791
0.0189419	4.17582
0.0203839	4.26374
0.0221536	4.3956
0.0233333	4.43956
0.0262172	4.57143
0.0285768	4.65934
0.029691	4.92308
0.0302154	5.05495
0.0305431	5.40659
0.0317884	7.03297
