Adsorption isotherm of Water on Silicalite MFI
DOI: 10.1021/La7011205
Adsorbate Water: InChIKey XLYOFNOQVPJJNP-UHFFFAOYSA-N
Temperature: 300 K
Tabular data in the source: 0
pressure (bar)	uptake (molecules/unitcell)
0.0200562	0.0879121
0.0217603	0.0879121
0.023661	0.0879121
0.0256929	0.0879121
0.0277903	0.0879121
0.0300843	0.0879121
0.031264	0.131868
0.0329682	0.131868
0.0346067	0.131868
