Adsorption isotherm of Ethane on NUS-6(Hf)-Ag
DOI: 10.1021/acs.iecr.7b00517
Article source: Figure 5a
Adsorbate Ethane: InChIKey OTMSDBZUPAUEDD-UHFFFAOYSA-N
Kind: experiment
Temperature: 298 K
Tabular data in the source: 0
pressure (bar)	uptake (mmol/g)
0.000993	0.00572
0.0139	0.0386
0.023	0.0615
0.0354	0.0872
0.0461	0.114
0.0568	0.136
0.0676	0.156
0.161	0.335
0.0767	0.174
0.088	0.197
0.0987	0.22
0.111	0.243
0.215	0.42
0.268	0.497
0.319	0.568
0.375	0.64
0.428	0.708
0.481	0.771
0.534	0.832
0.587	0.889
0.641	0.946
0.694	1
0.747	1.06
0.799	1.11
0.854	1.16
0.906	1.21
0.959	1.26
1.01	1.31
1.06	1.35
