Adsorption isotherm of Ethane, Ethene on NUS-6(Hf)-Ag
DOI: 10.1021/acs.iecr.7b00517
Article source: Table S1
Adsorbate Ethane: InChIKey OTMSDBZUPAUEDD-UHFFFAOYSA-N
Adsorbate Ethene: InChIKey VGGSQFUCUMXWEO-UHFFFAOYSA-N
Kind: experiment
Temperature: 298 K
Tabular data in the source: 0
pressure (bar)	Ethane fraction	Ethane uptake (mmol/g)	Ethene fraction	Ethene uptake (mmol/g)	total uptake (mmol/g)
1.01325	0.5	0.16	0.5	0.72	
1.01325	0.5	0.19	0.5	0.72	
1.01325	0.5	0.24	0.5	0.8	
