Adsorption isotherm of Ethene on NUS-6(Hf)-Ag
DOI: 10.1021/acs.iecr.7b00517
Article source: Figure 5a
Adsorbate Ethene: InChIKey VGGSQFUCUMXWEO-UHFFFAOYSA-N
Kind: experiment
Temperature: 298 K
Tabular data in the source: 0
pressure (bar)	uptake (mmol/g)
0.000327	0.164
0.00132	0.264
0.0104	0.407
0.0227	0.485
0.0328	0.53
0.0441	0.573
0.0548	0.609
0.0656	0.639
0.0763	0.67
0.0876	0.701
0.0983	0.731
0.109	0.756
0.161	0.865
0.214	0.965
0.268	1.06
0.319	1.14
0.372	1.22
0.425	1.3
0.479	1.37
0.532	1.44
0.585	1.5
0.638	1.57
0.692	1.64
0.746	1.69
0.798	1.75
0.852	1.81
0.905	1.87
0.959	1.92
1.01	1.97
1.06	2.02
