Adsorption isotherm of Nitrogen on CuBTC
DOI: 10.1016/j.micromeso.2014.03.004
Adsorbate Nitrogen: InChIKey IJGRMHOSHXDMSA-UHFFFAOYSA-N
Temperature: 77 K
Tabular data in the source: 0
pressure (bar)	uptake (cm3(STP)/g)
0.00239154	26.4567
0.00257632	39.3176
0.0041918	11.7585
0.00423403	14.6982
0.00463526	42.6247
0.0048042	54.3832
0.00497314	66.1417
0.00503121	70.1837
0.00507344	73.1234
0.00531629	90.0262
0.00539021	95.1706
0.00630881	19.1076
0.00635633	22.4147
0.00647247	30.4987
0.0066942	45.9318
0.00675228	49.9738
0.00714823	77.5328
0.00721158	81.9423
0.00855253	35.2756
0.00889041	58.7927
0.00893793	62.0997
0.0093022	87.4541
0.0214869	95.5381
0.0476567	97.0079
0.0818614	97.7428
0.110022	97.7428
0.132147	97.7428
0.154278	98.1102
0.182444	98.4777
0.208581	97.7428
0.230713	98.1102
0.256861	98.1102
0.281008	98.8451
0.303124	98.1102
0.35341	98.1102
0.45197	98.1102
0.500243	98.1102
0.548518	98.1102
0.598809	98.4777
0.645061	97.7428
0.693347	98.4777
0.735586	98.4777
0.785877	98.8451
0.828128	99.5801
0.868367	100.315
0.902603	103.255
0.924824	109.869
0.947135	122.73
0.967397	133.018
