Adsorption isotherm of Nitrogen on CuBTC
DOI: 10.1016/j.micromeso.2014.03.004
Adsorbate Nitrogen: InChIKey IJGRMHOSHXDMSA-UHFFFAOYSA-N
Temperature: 77 K
Tabular data in the source: 0
pressure (bar)	uptake (cm3(STP)/g)
0.130184	101.05
0.178462	101.417
0.226737	101.417
0.275006	101.05
0.321274	101.417
0.367532	101.05
0.429892	101.417
0.458062	102.152
0.478218	105.092
0.484295	108.031
0.5185	108.766
0.566785	109.501
0.615043	108.399
0.669357	108.766
0.723666	108.766
0.794082	109.869
0.842387	112.073
0.874613	115.013
0.888713	116.483
0.922987	121.995
0.971425	133.386
