Adsorption isotherm of Nitrogen on DBA-COF 1
DOI: 10.1021/acs.chemmater.5b02053
Article source: Figure 2
Adsorbate Nitrogen: InChIKey IJGRMHOSHXDMSA-UHFFFAOYSA-N
Kind: experiment
Temperature: 77 K
Tabular data in the source: 0
pressure (bar)	uptake (cm3(STP)/g)
-0.002018	52.6316
0.002018	91.4127
0.002018	130.194
0.004037	163.435
0.010092	229.917
0.028258	271.468
0.044405	324.1
0.131198	421.053
0.215972	620.499
0.429925	775.623
0.456164	786.704
0.492496	781.163
0.526809	789.474
0.565159	792.244
0.599473	797.784
0.629749	795.014
0.662044	797.784
0.698375	806.094
0.736726	811.634
0.803334	814.404
0.914347	828.255
0.94866	839.335
0.98701	850.416
0.389556	767.313
0.357261	756.233
0.32093	761.773
0.302764	745.152
0.270469	742.382
1.00316	878.116
0.960771	861.496
0.926458	853.186
0.888108	842.105
0.855813	842.105
0.837647	839.335
0.801315	839.335
0.76902	836.565
0.734707	836.565
0.700394	833.795
0.664062	825.485
0.633786	828.255
0.599473	822.715
0.559104	814.404
0.524791	814.404
0.488459	808.864
0.458183	800.554
0.419833	800.554
0.387538	783.934
0.353225	783.934
0.318911	778.393
0.284598	770.083
0.250285	747.922
0.21799	670.36
0.181658	493.075
0.147345	445.983
0.113032	393.352
0.080737	351.801
0.042387	299.169
0.010092	199.446
-0.006055	149.584
