Adsorption isotherm of Nitrogen on DBA-COF 2
DOI: 10.1021/acs.chemmater.5b02053
Article source: Figure 2
Adsorbate Nitrogen: InChIKey IJGRMHOSHXDMSA-UHFFFAOYSA-N
Kind: experiment
Temperature: 77 K
Tabular data in the source: 0
pressure (bar)	uptake (cm3(STP)/g)
-0.001991	60.6936
0.001991	89.0173
0.009953	119.364
0.045785	163.873
0.079627	186.127
0.109487	200.289
0.143328	220.52
0.181151	234.682
0.216983	260.983
0.248833	275.145
0.278694	303.468
0.32846	388.439
0.378227	396.532
0.426003	400.578
0.459844	410.694
0.493686	412.717
0.529518	410.694
0.563359	420.809
0.599191	422.832
0.631042	422.832
0.666874	424.855
0.702706	432.948
0.738538	434.971
0.77437	441.04
0.80423	443.064
0.838071	449.133
0.873903	455.202
0.909735	471.387
0.939595	481.503
0.975427	523.988
1.01524	669.653
0.005972	137.572
0.039813	176.012
0.081617	198.266
0.109487	214.451
0.145319	234.682
0.169207	244.798
0.203048	267.052
0.244852	293.353
0.284666	333.815
0.318507	400.578
0.35633	410.694
0.38818	414.74
0.426003	424.855
0.461835	428.902
0.493686	432.948
0.521555	430.925
0.56535	434.971
0.599191	443.064
0.631042	445.087
0.660902	447.11
0.702706	451.156
0.732566	451.156
0.772379	461.272
0.806221	463.295
0.842053	479.48
0.877885	499.711
0.895801	513.873
0.937605	564.451
0.971446	623.121
1.00927	673.699
