Adsorption isotherm of Carbon Dioxide on Activated carbon: Degussa F30-470
DOI: 10.1002/ceat.270170507
Article source: Figure 6
Adsorbate Carbon Dioxide: InChIKey CURLTUGMZLYLDI-UHFFFAOYSA-N
Kind: experiment
Temperature: 303 K
Tabular data in the source: 0
pressure (bar)	uptake (mmol/g)
0.323	1.58
0.969	2.42
2.91	4.31
5.74	5.69
9.45	6.73
16.5	7.59
29.2	8.33
34.7	8.46
47.5	8.49
