Adsorption isotherm of Nitrogen, Carbon monoxide on Zeolite 5A
DOI: 10.1002/ceat.270170507
Article source: Fig 11
Adsorbate Nitrogen: InChIKey IJGRMHOSHXDMSA-UHFFFAOYSA-N
Adsorbate Carbon monoxide: InChIKey UGFAIRIUMAVXCW-UHFFFAOYSA-N
Kind: experiment
Temperature: 303 K
Tabular data in the source: 0
pressure (bar)	Nitrogen fraction	Nitrogen uptake (molefraction)	Carbon monoxide fraction	Carbon monoxide uptake (molefraction)	total uptake (molefraction)
30	0.851494	0.586024	0.148506	0.413976	
30	0.647891	0.334934	0.352109	0.665066	
30	0.431548	0.184994	0.568452	0.815006	
30	0.208795	0.06449	0.791205	0.93551	
