Adsorption isotherm of Carbon monoxide on Zeolite 5A
DOI: 10.1002/ceat.270170507
Article source: Figure 6
Adsorbate Carbon monoxide: InChIKey UGFAIRIUMAVXCW-UHFFFAOYSA-N
Kind: experiment
Temperature: 303 K
Tabular data in the source: 0
pressure (bar)	uptake (mmol/g)
1.05	1.22
1.78	1.46
2.18	1.66
3.63	1.95
6.3	2.34
8.97	2.63
14.8	2.99
19.5	3.2
29.2	3.44
39.9	3.58
