Adsorption isotherm of Carbon monoxide, Methane on Zeolite 5A
DOI: 10.1002/ceat.270170507
Article source: Fig 11
Adsorbate Carbon monoxide: InChIKey UGFAIRIUMAVXCW-UHFFFAOYSA-N
Adsorbate Methane: InChIKey VNWKTOKETHGBQD-UHFFFAOYSA-N
Kind: experiment
Temperature: 303 K
Tabular data in the source: 0
pressure (bar)	Carbon monoxide fraction	Carbon monoxide uptake (molefraction)	Methane fraction	Methane uptake (molefraction)	total uptake (molefraction)
30	0.174059	0.251198	0.825941	0.748802	
30	0.356374	0.474793	0.643626	0.525207	
30	0.558883	0.633056	0.441117	0.366944	
30	0.777149	0.824349	0.222851	0.175651	
