Adsorption isotherm of Methane on Activated carbon: Degussa F30-470
DOI: 10.1002/ceat.270170507
Article source: Figure 6
Adsorbate Methane: InChIKey VNWKTOKETHGBQD-UHFFFAOYSA-N
Kind: experiment
Temperature: 303 K
Tabular data in the source: 0
pressure (bar)	uptake (mmol/g)
0.646	0.702
0.889	1.07
2.02	1.74
2.91	2.08
3.55	2.37
5.74	2.96
9.77	3.72
19.9	4.66
29.8	5.16
42.2	5.42
48.3	5.51
