Adsorption isotherm of Carbon Dioxide, Methane on Activated carbon: Degussa F30-470
DOI: 10.1002/ceat.270170507
Article source: Fig 11
Adsorbate Carbon Dioxide: InChIKey CURLTUGMZLYLDI-UHFFFAOYSA-N
Adsorbate Methane: InChIKey VNWKTOKETHGBQD-UHFFFAOYSA-N
Kind: experiment
Temperature: 303 K
Tabular data in the source: 0
pressure (bar)	Carbon Dioxide fraction	Carbon Dioxide uptake (molefraction)	Methane fraction	Methane uptake (molefraction)	total uptake (molefraction)
30	0.827277	0.972142	0.172723	0.027858	
30	0.64158	0.917678	0.35842	0.082322	
30	0.440973	0.78882	0.559027	0.21118	
30	0.236474	0.552439	0.763526	0.447561	
