Adsorption isotherm of Nitrogen, Methane on Zeolite 5A
DOI: 10.1002/ceat.270170507
Article source: Fig 11
Adsorbate Nitrogen: InChIKey IJGRMHOSHXDMSA-UHFFFAOYSA-N
Adsorbate Methane: InChIKey VNWKTOKETHGBQD-UHFFFAOYSA-N
Kind: experiment
Temperature: 303 K
Tabular data in the source: 0
pressure (bar)	Nitrogen fraction	Nitrogen uptake (molefraction)	Methane fraction	Methane uptake (molefraction)	total uptake (molefraction)
30	0.806425	0.680859	0.193575	0.319141	
30	0.602803	0.419659	0.397197	0.580341	
30	0.399312	0.22923	0.600688	0.77077	
30	0.196848	0.094865	0.803152	0.905135	
