Adsorption isotherm of Carbon monoxide on Activated carbon: Degussa F30-470
DOI: 10.1002/ceat.270170507
Article source: Figure 6
Adsorbate Carbon monoxide: InChIKey UGFAIRIUMAVXCW-UHFFFAOYSA-N
Kind: experiment
Temperature: 303 K
Tabular data in the source: 0
pressure (bar)	uptake (mmol/g)
0.565	0.312
1.7	0.676
2.99	1.12
5.98	1.72
8.89	2.21
20.3	3.1
30.3	3.52
33.6	3.6
42.2	3.92
48.3	4.08
