Adsorption isotherm of Nitrogen, Methane on Activated carbon: Degussa F30-470
DOI: 10.1002/ceat.270170507
Article source: Fig 11
Adsorbate Nitrogen: InChIKey IJGRMHOSHXDMSA-UHFFFAOYSA-N
Adsorbate Methane: InChIKey VNWKTOKETHGBQD-UHFFFAOYSA-N
Kind: experiment
Temperature: 303 K
Tabular data in the source: 0
pressure (bar)	Nitrogen fraction	Nitrogen uptake (molefraction)	Methane fraction	Methane uptake (molefraction)	total uptake (molefraction)
30	0.195877	0.065456	0.804123	0.934544	
30	0.396421	0.160307	0.603579	0.839693	
30	0.603535	0.312119	0.396465	0.687881	
30	0.804402	0.581601	0.195598	0.418399	
