Adsorption isotherm of Carbon Dioxide, Methane on Zeolite 5A
DOI: 10.1002/ceat.270170507
Article source: Fig 11
Adsorbate Carbon Dioxide: InChIKey CURLTUGMZLYLDI-UHFFFAOYSA-N
Adsorbate Methane: InChIKey VNWKTOKETHGBQD-UHFFFAOYSA-N
Kind: experiment
Temperature: 303 K
Tabular data in the source: 0
pressure (bar)	Carbon Dioxide fraction	Carbon Dioxide uptake (molefraction)	Methane fraction	Methane uptake (molefraction)	total uptake (molefraction)
30	0.006839	0.701262	0.993161	0.298738	
30	0.032896	0.81146	0.967104	0.18854	
30	0.123556	0.903958	0.876444	0.096042	
30	0.252906	0.946681	0.747094	0.053319	
