Adsorption isotherm of Carbon monoxide, Methane on Activated carbon: Degussa F30-470
DOI: 10.1002/ceat.270170507
Article source: Fig 11
Adsorbate Carbon monoxide: InChIKey UGFAIRIUMAVXCW-UHFFFAOYSA-N
Adsorbate Methane: InChIKey VNWKTOKETHGBQD-UHFFFAOYSA-N
Kind: experiment
Temperature: 303 K
Tabular data in the source: 0
pressure (bar)	Carbon monoxide fraction	Carbon monoxide uptake (molefraction)	Methane fraction	Methane uptake (molefraction)	total uptake (molefraction)
30	0.195916	0.086596	0.804084	0.913404	
30	0.394678	0.21638	0.605322	0.78362	
30	0.598134	0.387507	0.401866	0.612493	
30	0.79619	0.63494	0.20381	0.36506	
