Adsorption isotherm of Carbon Dioxide on Zeolite 5A
DOI: 10.1002/ceat.270170507
Article source: Figure 6
Adsorbate Carbon Dioxide: InChIKey CURLTUGMZLYLDI-UHFFFAOYSA-N
Kind: experiment
Temperature: 303 K
Tabular data in the source: 0
pressure (bar)	uptake (mmol/g)
0.242	3.27
0.323	3.9
0.404	4.13
0.646	4.26
1.05	4.44
2.1	4.52
2.83	4.73
4.12	4.83
5.17	4.91
6.22	4.99
7.35	5.02
8.48	5.04
9.53	5.12
10.3	5.12
11.6	5.15
14.5	5.23
20.4	5.28
29.6	5.31
40.6	5.32
