Adsorption isotherm of Nitrogen on Activated carbon: Degussa F30-470
DOI: 10.1002/ceat.270170507
Article source: Figure 6
Adsorbate Nitrogen: InChIKey IJGRMHOSHXDMSA-UHFFFAOYSA-N
Kind: experiment
Temperature: 303 K
Tabular data in the source: 0
pressure (bar)	uptake (mmol/g)
0.889	0.338
1.86	0.676
3.07	0.859
4.85	1.28
5.82	1.41
9.69	1.9
19.9	2.63
30.1	3.13
34.4	3.29
42	3.5
48.2	3.56
