Adsorption isotherm of Nitrogen on Zeolite 5A
DOI: 10.1002/ceat.270170507
Article source: Figure 6
Adsorbate Nitrogen: InChIKey IJGRMHOSHXDMSA-UHFFFAOYSA-N
Kind: experiment
Temperature: 303 K
Tabular data in the source: 0
pressure (bar)	uptake (mmol/g)
0.969	0.286
3.88	1.12
6.3	1.43
7.51	1.56
8.72	1.64
9.69	1.75
11.5	1.85
15.5	2.14
20.3	2.24
29.3	2.48
39.9	2.67
