Adsorption isotherm of Methane on Zeolite 5A
DOI: 10.1002/ceat.270170507
Article source: Figure 6
Adsorbate Methane: InChIKey VNWKTOKETHGBQD-UHFFFAOYSA-N
Kind: experiment
Temperature: 303 K
Tabular data in the source: 0
pressure (bar)	uptake (mmol/g)
1.62	1.04
2.58	1.33
4.04	1.77
5.65	2.08
7.27	2.29
9.69	2.58
11.6	2.68
15.2	2.94
29.2	3.29
39.9	3.42
