Adsorption isotherm of Carbon Dioxide, Nitrogen on Activated carbon: Degussa F30-470
DOI: 10.1002/ceat.270170507
Article source: Fig 11
Adsorbate Carbon Dioxide: InChIKey CURLTUGMZLYLDI-UHFFFAOYSA-N
Adsorbate Nitrogen: InChIKey IJGRMHOSHXDMSA-UHFFFAOYSA-N
Kind: experiment
Temperature: 303 K
Tabular data in the source: 0
pressure (bar)	Carbon Dioxide fraction	Carbon Dioxide uptake (molefraction)	Nitrogen fraction	Nitrogen uptake (molefraction)	total uptake (molefraction)
30	0.816218	0.984132	0.183782	0.015868	
30	0.609314	0.94537	0.390686	0.05463	
30	0.395936	0.901118	0.604064	0.098882	
30	0.186993	0.758504	0.813007	0.241496	
