Adsorption isotherm of Nitrogen on PCN-19
DOI: 10.1039/B906605e
Adsorbate Nitrogen: InChIKey IJGRMHOSHXDMSA-UHFFFAOYSA-N
Temperature: 77 K
Tabular data in the source: 0
pressure (bar)	uptake (cm3(STP)/g)
0.00329329	17.6384
0.00658658	129.675
0.0131732	141.093
0.0164664	151.47
0.0263463	163.929
0.0395195	170.167
0.0493993	177.439
0.0625725	183.677
0.0790389	187.844
0.0955054	190.973
0.111972	194.103
0.135025	198.277
0.151491	200.369
0.171251	203.502
0.191011	205.598
0.23053	207.715
0.26017	210.859
0.309569	212.986
0.352382	215.107
0.382021	217.213
0.428127	218.299
0.47094	220.42
0.507166	221.496
0.536806	222.565
0.579619	224.685
0.622431	226.806
0.655364	227.878
0.691591	231.029
0.74099	233.156
0.800269	237.369
0.843082	239.489
0.882601	242.644
0.922121	243.723
0.95176	246.867
