Adsorption isotherm of Hydrogen on PCN-19
DOI: 10.1039/B906605e
Adsorbate Hydrogen: InChIKey UFHFLCQGNIYNRP-UHFFFAOYSA-N
Temperature: 77 K
Tabular data in the source: 0
pressure (bar)	uptake (wt%)
0	0.0887574
0.246305	0.502959
0.492611	0.724852
2.21675	1.00592
3.69458	1.16864
6.40394	1.31657
8.867	1.43491
12.8079	1.53846
19.7044	1.71598
25.3695	1.83432
30.7882	1.89349
37.1921	2.02663
42.3645	2.10059
45.0739	2.15976
47.7833	2.20414
