Adsorption isotherm of Nitrogen on PCN-19
DOI: 10.1039/B906605e
Adsorbate Nitrogen: InChIKey IJGRMHOSHXDMSA-UHFFFAOYSA-N
Temperature: 77 K
Tabular data in the source: 0
pressure (bar)	uptake (cm3(STP)/g)
0.00329329	0.00329329
0.00987986	106.857
0.0164664	118.275
0.0197597	125.54
0.0263463	134.883
0.0329329	144.226
0.0493993	156.692
0.0691591	166.049
0.0922121	171.26
0.115265	178.546
0.141611	183.761
0.154785	185.85
0.181131	188.99
0.194304	190.041
0.23053	192.155
0.263463	193.227
0.306276	196.385
0.342502	198.498
0.388608	200.622
0.428127	202.739
0.467647	204.856
0.507166	206.973
0.543393	209.086
0.582912	210.166
0.615845	211.238
0.645484	214.382
0.671831	215.448
0.70147	217.554
0.73111	218.623
0.767336	219.699
0.810149	222.857
0.846375	224.97
0.895774	228.135
0.932001	229.211
0.958347	233.388
