Adsorption isotherm of Hydrogen on PCN-19
DOI: 10.1039/B906605e
Adsorbate Hydrogen: InChIKey UFHFLCQGNIYNRP-UHFFFAOYSA-N
Temperature: 77 K
Tabular data in the source: 0
pressure (bar)	uptake (wt%)
0.246305	0.488166
0.985222	0.843195
1.72414	0.991124
3.20197	1.07988
6.40394	1.2426
9.1133	1.33136
13.0542	1.40533
19.9507	1.49408
25.3695	1.55325
30.5419	1.55325
37.4384	1.61243
42.6108	1.64201
45.5665	1.6568
48.0296	1.6716
