Adsorption isotherm of Carbon Dioxide on Beta-[{Co(F-pymo)2}n]
DOI: 10.1002/chem.200801048
Adsorbate Carbon Dioxide: InChIKey CURLTUGMZLYLDI-UHFFFAOYSA-N
Temperature: 273 K
Tabular data in the source: 0
pressure (bar)	uptake (mmol/g)
0.197006	0.550982
0.896166	0.813167
2.0323	0.970478
4.47936	1.12779
6.31465	1.25888
6.83902	2.33384
8.10625	3.34325
9.41717	3.77586
13.8306	4.33955
16.7584	4.60174
19.8172	5.07367
23.7499	5.72913
28.0323	6.93518
