Adsorption isotherm of Methane on Beta-[{Zn(F-pymo)2}n]
DOI: 10.1002/chem.200801048
Adsorbate Methane: InChIKey VNWKTOKETHGBQD-UHFFFAOYSA-N
Temperature: 273 K
Tabular data in the source: 0
pressure (bar)	uptake (mmol/g)
2.25079	0.197033
3.51801	0.23636
7.01381	0.367453
9.32978	0.485436
12.1701	0.642747
14.9668	0.747621
17.8508	0.891823
21.0407	1.11468
24.9298	1.29821
28.5567	1.49485
