Adsorption isotherm of Carbon Dioxide on Beta-[{Zn(F-pymo)2}n]
DOI: 10.1002/chem.200801048
Adsorbate Carbon Dioxide: InChIKey CURLTUGMZLYLDI-UHFFFAOYSA-N
Temperature: 273 K
Tabular data in the source: 0
pressure (bar)	uptake (mmol/g)
0.153309	0.0790495
1.59533	0.24947
6.97012	0.524764
8.80541	0.682075
9.11129	1.08846
9.32978	3.4088
15.0541	4.18224
15.8407	4.52308
22.2642	5.71602
24.7987	6.41081
28.1634	8.20678
