Adsorption isotherm of Methane on [{Cu(H-pymo)2}n]
DOI: 10.1002/chem.200801048
Adsorbate Methane: InChIKey VNWKTOKETHGBQD-UHFFFAOYSA-N
Temperature: 273 K
Tabular data in the source: 0
pressure (bar)	uptake (mmol/g)
0.197006	0.354344
0.415493	1.00981
0.852468	1.37686
1.33314	1.69149
2.51297	2.04544
4.12978	2.37317
7.05751	2.66157
11.1214	2.87132
17.1516	3.15972
26.4155	3.43502
