Adsorption isotherm of Methane on Beta-[{Co(F-pymo)2}n]
DOI: 10.1002/chem.200801048
Adsorbate Methane: InChIKey VNWKTOKETHGBQD-UHFFFAOYSA-N
Temperature: 273 K
Tabular data in the source: 0
pressure (bar)	uptake (mmol/g)
0.153309	0.223251
1.28944	0.367453
3.7802	0.577201
5.4407	0.629638
7.62558	0.852495
11.9516	1.00981
14.0054	1.12779
19.8172	1.35065
23.5752	1.53418
27.9886	1.83569
