Adsorption isotherm of Carbon Dioxide on [{Cu(H-pymo)2}n]
DOI: 10.1002/chem.200801048
Adsorbate Carbon Dioxide: InChIKey CURLTUGMZLYLDI-UHFFFAOYSA-N
Temperature: 273 K
Tabular data in the source: 0
pressure (bar)	uptake (mmol/g)
0.0659136	0.996697
0.240703	2.05855
0.808771	2.71401
1.90121	3.15972
4.61045	3.72342
8.14995	4.18224
12.2138	4.47065
15.2289	4.65418
20.8659	4.99502
22.5701	5.20476
24.4054	5.2572
26.1533	5.50628
