Adsorption isotherm of Hydrogen on Cu3[Fe(CN)6]2
DOI: 10.1021/Jp803714j
Adsorbate Hydrogen: InChIKey UFHFLCQGNIYNRP-UHFFFAOYSA-N
Temperature: 75 K
Tabular data in the source: 0
pressure (bar)	uptake (mol/mol)
0.00289046	0.00289046
0.00578092	0.318182
0.00867137	0.48951
0.0144523	0.685315
0.0260141	0.893357
0.0462473	1.1993
0.0780424	1.49301
0.130071	1.81119
0.161866	1.97028
0.219675	2.2028
0.274593	2.3986
0.343964	2.56993
0.419116	2.72902
0.479816	2.83916
0.563639	2.96154
0.63012	3.0472
0.705272	3.13287
0.783314	3.23077
0.852685	3.29196
0.878699	3.34091
0.924947	3.38986
0.991427	3.43881
1.03767	3.47552
1.0897	3.51224
1.13595	3.56119
