Adsorption isotherm of Hydrogen on Cu3[Ir(CN)6]2
DOI: 10.1021/Jp803714j
Adsorbate Hydrogen: InChIKey UFHFLCQGNIYNRP-UHFFFAOYSA-N
Temperature: 75 K
Tabular data in the source: 0
pressure (bar)	uptake (mol/mol)
0.00281603	0.23569
0.00563206	0.47138
0.0111169	1.2963
0.0113524	0.73064
0.0141194	1.08418
0.0168373	1.55556
0.0225381	1.86195
0.0310058	2.52189
0.0311333	2.21549
0.0454097	2.92256
0.0598333	3.27609
0.0800754	3.6532
0.103261	3.9596
0.126417	4.3367
0.187408	4.83165
0.277511	5.39731
0.422983	5.96296
0.562716	6.3165
0.702457	6.64646
0.743206	6.76431
0.792708	6.85859
0.853856	6.97643
0.917928	7.07071
0.932518	7.02357
0.973267	7.14141
1.02279	7.18855
1.07521	7.25926
1.13346	7.35354
