Adsorption isotherm of Hydrogen on Cu1.6Mn1.4[Co(CN)6]2
DOI: 10.1021/Jp803714j
Adsorbate Hydrogen: InChIKey UFHFLCQGNIYNRP-UHFFFAOYSA-N
Temperature: 75 K
Tabular data in the source: 0
pressure (bar)	uptake (mol/mol)
0.0200949	0.73064
0.0315945	1.10774
0.0489126	1.50842
0.0836665	2.02694
0.103948	2.30976
0.135896	2.56902
0.167833	2.85185
0.214342	3.13468
0.28123	3.46465
0.313237	3.58249
0.365613	3.77104
0.423818	3.9596
0.484956	4.10101
0.560655	4.26599
0.636364	4.40741
0.706255	4.52525
0.755756	4.61953
0.796544	4.6431
0.846045	4.73737
0.892652	4.78451
0.939249	4.85522
0.985856	4.90236
1.02372	4.94949
1.06741	4.99663
1.09655	4.99663
1.12568	5.04377
