Adsorption isotherm of Hydrogen on Cu[Pt(CN)6]
DOI: 10.1021/Jp803714j
Adsorbate Hydrogen: InChIKey UFHFLCQGNIYNRP-UHFFFAOYSA-N
Temperature: 75 K
Tabular data in the source: 0
pressure (bar)	uptake (mol/mol)
0.0260141	0.0122378
0.0549187	0.0122378
0.0896042	0.0122378
0.132961	0.0122378
0.271703	0.0122378
0.419116	0.0122378
0.572311	0.0244755
0.705272	0.0244755
0.803547	0.0367133
0.936508	0.0367133
1.01455	0.048951
