Adsorption isotherm of Hydrogen on Cu2[Fe(CN)6]
DOI: 10.1021/Jp803714j
Adsorbate Hydrogen: InChIKey UFHFLCQGNIYNRP-UHFFFAOYSA-N
Temperature: 75 K
Tabular data in the source: 0
pressure (bar)	uptake (mol/mol)
0	0
0.0144523	0.208042
0.0289046	0.318182
0.0462473	0.465035
0.0809328	0.685315
0.12718	0.954545
0.271703	1.52972
0.419116	1.88462
0.560749	2.14161
0.708162	2.32517
0.800657	2.42308
0.936508	2.54545
1.01744	2.60664
1.12728	2.64336
