Adsorption isotherm of Hydrogen on Cu3[Co(CN)6]2
DOI: 10.1021/Jp803714j
Adsorbate Hydrogen: InChIKey UFHFLCQGNIYNRP-UHFFFAOYSA-N
Temperature: 75 K
Tabular data in the source: 0
pressure (bar)	uptake (mol/mol)
0.019879	1.24916
0.0225479	1.83838
0.0340769	2.14478
0.0455765	2.52189
0.0600197	2.82828
0.0832054	3.13468
0.106371	3.48822
0.126663	3.74747
0.15863	3.9596
0.193502	4.19529
0.24001	4.47811
0.277796	4.7138
0.327278	4.85522
0.385482	5.04377
0.426221	5.18519
0.461172	5.23232
0.528128	5.39731
0.580544	5.49158
0.61258	5.53872
0.653349	5.60943
0.705754	5.72727
0.749457	5.75084
0.790225	5.82155
0.848479	5.89226
0.892171	5.93939
0.941692	5.98653
0.988289	6.05724
1.03199	6.08081
1.07569	6.10438
1.13104	6.15152
