Adsorption isotherm of Hydrogen on Mn3[Co(CN)6]2
DOI: 10.1021/Jp803714j
Adsorbate Hydrogen: InChIKey UFHFLCQGNIYNRP-UHFFFAOYSA-N
Temperature: 75 K
Tabular data in the source: 0
pressure (bar)	uptake (mol/mol)
0.00865414	0.212121
0.0173083	0.424242
0.0491775	0.872054
0.0840001	1.22559
0.104321	1.41414
0.127565	1.57912
0.162466	1.74411
0.217737	1.9798
0.278826	2.23906
0.345783	2.40404
0.424387	2.59259
0.485545	2.68687
0.558339	2.82828
0.631164	2.89899
0.69814	3.01684
0.741833	3.06397
0.794258	3.13468
0.85835	3.18182
0.937012	3.22896
0.971962	3.27609
1.01565	3.32323
1.05644	3.3468
1.12927	3.41751
