Adsorption isotherm of Hydrogen on Cu2.3Mn0.7[Co(CN)6]2
DOI: 10.1021/Jp803714j
Adsorbate Hydrogen: InChIKey UFHFLCQGNIYNRP-UHFFFAOYSA-N
Temperature: 75 K
Tabular data in the source: 0
pressure (bar)	uptake (mol/mol)
0.0142175	0.848485
0.0286215	1.24916
0.0488341	1.69697
0.0604024	1.90909
0.0806739	2.21549
0.100975	2.45118
0.132893	2.78114
0.161946	2.99327
0.202646	3.22896
0.243346	3.46465
0.269515	3.60606
0.321891	3.79461
0.377171	4.00673
0.420815	4.17172
0.481953	4.31313
0.537273	4.43098
0.598411	4.57239
0.645008	4.6431
0.706166	4.73737
0.758572	4.85522
0.79936	4.87879
0.834301	4.94949
0.869251	4.99663
0.936237	5.09091
0.971197	5.11448
1.01488	5.18519
1.06149	5.23232
1.12848	5.30303
