Adsorption isotherm of Carbon Dioxide on MOF-177
DOI: 10.1039/c1ee01720a
Adsorbate Carbon Dioxide: InChIKey CURLTUGMZLYLDI-UHFFFAOYSA-N
Temperature: 313 K
Tabular data in the source: 0
pressure (bar)	uptake (mmol/g)
0.025976	0.0282541
0.207703	0.136529
0.253518	0.165329
0.306624	0.206379
0.408174	0.264253
0.508512	0.334141
0.608821	0.402308
0.709042	0.465309
0.813602	0.533593
0.911047	0.59996
1.01977	0.663195
