Adsorption isotherm of Nitrogen on MOF-177
DOI: 10.1039/c1ee01720a
Adsorbate Nitrogen: InChIKey IJGRMHOSHXDMSA-UHFFFAOYSA-N
Temperature: 348 K
Tabular data in the source: 0
pressure (bar)	uptake (mmol/g)
0.0658833	0.00964017
0.249485	0.0285677
0.498415	0.052003
0.554481	0.0641354
0.60699	0.0700146
0.65606	0.0707404
0.73184	0.0786215
0.808942	0.0854135
0.904713	0.0916096
0.958133	0.10592
1.01124	0.117298
