Adsorption isotherm of Carbon Dioxide on Mg2(dobdc)
DOI: 10.1039/c1ee01720a
Adsorbate Carbon Dioxide: InChIKey CURLTUGMZLYLDI-UHFFFAOYSA-N
Temperature: 453 K
Tabular data in the source: 0
pressure (bar)	uptake (mmol/g)
0.053735	0.216156
0.304072	0.580576
0.355817	0.622096
0.456449	0.736275
0.554223	0.881595
0.65195	1.01106
0.752582	1.12524
0.854689	1.2397
0.953892	1.36945
1.05443	1.45193
