Adsorption isotherm of Carbon Dioxide on MOF-177
DOI: 10.1039/c1ee01720a
Adsorbate Carbon Dioxide: InChIKey CURLTUGMZLYLDI-UHFFFAOYSA-N
Temperature: 298 K
Tabular data in the source: 0
pressure (bar)	uptake (mmol/g)
0.025976	0.0282541
0.258706	0.22055
0.355027	0.304097
0.412472	0.35043
0.513015	0.432372
0.609365	0.517642
0.712888	0.608272
0.817741	0.693776
0.915538	0.780807
0.968731	0.827022
1.01909	0.873159
