Adsorption isotherm of Carbon Dioxide on Mg2(dobdc)
DOI: 10.1039/c1ee01720a
Adsorbate Carbon Dioxide: InChIKey CURLTUGMZLYLDI-UHFFFAOYSA-N
Temperature: 423 K
Tabular data in the source: 0
pressure (bar)	uptake (mmol/g)
0.0539688	0.295408
0.20105	0.656041
0.301916	0.849473
0.402875	1.07461
0.502218	1.25191
0.606175	1.49345
0.706947	1.65518
0.806337	1.84833
0.957566	2.11471
1.05686	2.27616
