Adsorption isotherm of Carbon Dioxide on Mg2(dobdc)
DOI: 10.1039/c1ee01720a
Adsorbate Carbon Dioxide: InChIKey CURLTUGMZLYLDI-UHFFFAOYSA-N
Temperature: 293 K
Tabular data in the source: 0
pressure (bar)	uptake (mmol/g)
0.00292521	0.491645
0.0306402	3.88701
0.0558624	4.93735
0.105939	5.91321
0.19797	6.61189
0.325186	7.23806
0.477022	7.71048
0.67641	8.30284
0.876992	8.80038
1.02703	9.16157
