Adsorption isotherm of Carbon Dioxide on Mg2(dobdc)
DOI: 10.1039/c1ee01720a
Adsorbate Carbon Dioxide: InChIKey CURLTUGMZLYLDI-UHFFFAOYSA-N
Temperature: 413 K
Tabular data in the source: 0
pressure (bar)	uptake (mmol/g)
0.0539688	0.295408
0.205805	0.767836
0.299525	1.03912
0.408004	1.3132
0.504535	1.5375
0.605635	1.81018
0.703502	1.9872
0.80603	2.24431
0.949786	2.47758
1.05513	2.68771
