Adsorption isotherm of Nitrogen on Mg2(dobdc)
DOI: 10.1039/c1ee01720a
Adsorbate Nitrogen: InChIKey IJGRMHOSHXDMSA-UHFFFAOYSA-N
Temperature: 373 K
Tabular data in the source: 0
pressure (bar)	uptake (mmol/g)
0.0591128	0.0292469
0.197959	0.0569143
0.304067	0.0855815
0.404377	0.110149
0.50597	0.12886
0.603333	0.149411
0.756864	0.195192
0.784044	0.199923
0.87542	0.208509
0.901317	0.219096
0.957341	0.238429
1.00457	0.247679
