Adsorption isotherm of Carbon Dioxide on MOF-177
DOI: 10.1039/c1ee01720a
Adsorbate Carbon Dioxide: InChIKey CURLTUGMZLYLDI-UHFFFAOYSA-N
Temperature: 373 K
Tabular data in the source: 0
pressure (bar)	uptake (mmol/g)
0.0271882	0.0162393
0.205144	0.0693327
0.253501	0.0809914
0.303334	0.0961331
0.404357	0.123012
0.506827	0.151651
0.606404	0.176768
0.704652	0.207013
0.80718	0.239096
0.908116	0.260809
1.00781	0.292814
