Adsorption isotherm of Carbon Dioxide on MOF-177
DOI: 10.1039/c1ee01720a
Adsorbate Carbon Dioxide: InChIKey CURLTUGMZLYLDI-UHFFFAOYSA-N
Temperature: 383 K
Tabular data in the source: 0
pressure (bar)	uptake (mmol/g)
0.025654	0.00931233
0.205057	0.0641668
0.253413	0.0758255
0.304663	0.0910062
0.401377	0.114324
0.506651	0.141319
0.607616	0.164754
0.704476	0.196681
0.806917	0.223598
0.903718	0.252082
1.00891	0.273911
