Adsorption isotherm of Carbon Dioxide on MOF-177
DOI: 10.1039/c1ee01720a
Adsorbate Carbon Dioxide: InChIKey CURLTUGMZLYLDI-UHFFFAOYSA-N
Temperature: 473 K
Tabular data in the source: 0
pressure (bar)	uptake (mmol/g)
0.0270126	0.0059074
0.203113	0.0331322
0.252887	0.0448299
0.302602	0.0530837
0.403303	0.0610204
0.504151	0.077567
0.606475	0.0975966
0.705935	0.115826
0.803948	0.132295
0.90633	0.155768
1.00851	0.167188
