Adsorption isotherm of Nitrogen on MOF-177
DOI: 10.1039/c1ee01720a
Adsorbate Nitrogen: InChIKey IJGRMHOSHXDMSA-UHFFFAOYSA-N
Temperature: 413 K
Tabular data in the source: 0
pressure (bar)	uptake (mmol/g)
0.0217498	0.00125824
0.179965	0.0119411
0.4507	0.0238147
0.503526	0.0326266
0.670409	0.0301861
0.721396	0.0353216
0.821533	0.041916
0.852941	0.0392157
0.906535	0.0418061
0.976269	0.0470789
1.00547	0.0505895
