Adsorption isotherm of Nitrogen on Mg2(dobdc)
DOI: 10.1039/c1ee01720a
Adsorbate Nitrogen: InChIKey IJGRMHOSHXDMSA-UHFFFAOYSA-N
Temperature: 403 K
Tabular data in the source: 0
pressure (bar)	uptake (mmol/g)
0.0617258	0.0195008
0.174913	0.046412
0.399529	0.0864301
0.549494	0.102637
0.600956	0.110048
0.697986	0.116837
0.751064	0.132153
0.776961	0.14274
0.80457	0.165164
0.925834	0.172667
0.957433	0.183421
1.00595	0.186816
