Adsorption isotherm of Nitrogen on MOF-177
DOI: 10.1039/c1ee01720a
Adsorbate Nitrogen: InChIKey IJGRMHOSHXDMSA-UHFFFAOYSA-N
Temperature: 303 K
Tabular data in the source: 0
pressure (bar)	uptake (mmol/g)
0.0207039	0.00491358
0.177699	0.0309722
0.257076	0.0454731
0.356919	0.062688
0.45368	0.0780489
0.563776	0.0968042
0.659213	0.113254
0.757416	0.128626
0.838196	0.142771
0.917493	0.156538
1.01009	0.173334
