Adsorption isotherm of Carbon Dioxide on Mg2(dobdc)
DOI: 10.1039/c1ee01720a
Adsorbate Carbon Dioxide: InChIKey CURLTUGMZLYLDI-UHFFFAOYSA-N
Temperature: 323 K
Tabular data in the source: 0
pressure (bar)	uptake (mmol/g)
0.0116132	0.936861
0.0678671	3.00696
0.130638	4.28622
0.215478	5.0469
0.32051	5.65301
0.421937	6.03665
0.567777	6.47625
0.723713	6.83857
0.917971	7.19233
1.07054	7.41143
