Adsorption isotherm of Carbon Dioxide on MOF-177
DOI: 10.1039/c1ee01720a
Adsorbate Carbon Dioxide: InChIKey CURLTUGMZLYLDI-UHFFFAOYSA-N
Temperature: 303 K
Tabular data in the source: 0
pressure (bar)	uptake (mmol/g)
0.025976	0.0282541
0.178032	0.140875
0.259801	0.201647
0.360286	0.280146
0.462158	0.356961
0.56273	0.440626
0.664632	0.519164
0.759448	0.597506
0.864183	0.676122
0.963338	0.759748
1.0137	0.805885
