Adsorption isotherm of Carbon Dioxide on MOF-177
DOI: 10.1039/c1ee01720a
Adsorbate Carbon Dioxide: InChIKey CURLTUGMZLYLDI-UHFFFAOYSA-N
Temperature: 333 K
Tabular data in the source: 0
pressure (bar)	uptake (mmol/g)
0.0258296	0.0196442
0.205847	0.11066
0.257243	0.134451
0.307163	0.154758
0.407238	0.209149
0.508583	0.25497
0.604319	0.304078
0.707169	0.355103
0.812883	0.407928
0.905843	0.460402
1.01011	0.511466
