Adsorption isotherm of Carbon Dioxide on Mg2(dobdc)
DOI: 10.1039/c1ee01720a
Adsorbate Carbon Dioxide: InChIKey CURLTUGMZLYLDI-UHFFFAOYSA-N
Temperature: 443 K
Tabular data in the source: 0
pressure (bar)	uptake (mmol/g)
0.0538285	0.247857
0.301261	0.627566
0.354716	0.748619
0.456917	0.89478
0.556026	0.992829
0.658274	1.15484
0.753143	1.31545
0.85087	1.44492
0.957545	1.60777
1.05661	1.68997
