Adsorption isotherm of Nitrogen on MOF-177
DOI: 10.1039/c1ee01720a
Adsorbate Nitrogen: InChIKey IJGRMHOSHXDMSA-UHFFFAOYSA-N
Temperature: 313 K
Tabular data in the source: 0
pressure (bar)	uptake (mmol/g)
0.0764532	0.0141132
0.205296	0.0330058
0.301898	0.0469004
0.401583	0.062649
0.457213	0.0707488
0.559703	0.0857854
0.657787	0.100057
0.760316	0.11546
0.836571	0.12774
0.917073	0.139319
1.01536	0.155424
