Adsorption isotherm of Carbon Dioxide on MOF-177
DOI: 10.1039/c1ee01720a
Adsorbate Carbon Dioxide: InChIKey CURLTUGMZLYLDI-UHFFFAOYSA-N
Temperature: 413 K
Tabular data in the source: 0
pressure (bar)	uptake (mmol/g)
0.025654	0.00931233
0.20621	0.048708
0.251587	0.0516788
0.301478	0.0702644
0.403596	0.0782402
0.507337	0.0983088
0.606797	0.116538
0.704957	0.141617
0.821422	0.160315
0.903818	0.174632
1.00756	0.1947
