Adsorption isotherm of Carbon Dioxide on Mg2(dobdc)
DOI: 10.1039/c1ee01720a
Adsorbate Carbon Dioxide: InChIKey CURLTUGMZLYLDI-UHFFFAOYSA-N
Temperature: 403 K
Tabular data in the source: 0
pressure (bar)	uptake (mmol/g)
0.0436852	0.309295
0.204703	0.894359
0.252535	1.10939
0.353775	1.42963
0.459442	1.75071
0.554731	2.05397
0.6574	2.35863
0.752409	2.56679
0.9053	2.89685
1.05967	3.22718
