Adsorption isotherm of Carbon Dioxide on MOF-177
DOI: 10.1039/c1ee01720a
Adsorbate Carbon Dioxide: InChIKey CURLTUGMZLYLDI-UHFFFAOYSA-N
Temperature: 363 K
Tabular data in the source: 0
pressure (bar)	uptake (mmol/g)
0.0258296	0.0196442
0.205262	0.0762206
0.255094	0.0913623
0.30348	0.104743
0.407338	0.131699
0.507061	0.165427
0.608085	0.192305
0.707896	0.231199
0.804726	0.261404
0.910089	0.293565
1.00837	0.325532
