Adsorption isotherm of Nitrogen on MOF-177
DOI: 10.1039/c1ee01720a
Adsorbate Nitrogen: InChIKey IJGRMHOSHXDMSA-UHFFFAOYSA-N
Temperature: 393 K
Tabular data in the source: 0
pressure (bar)	uptake (mmol/g)
0.0496244	0.00585805
0.205074	0.0176196
0.298238	0.0263607
0.504675	0.0432577
0.609217	0.050617
0.652914	0.0549664
0.757535	0.0630589
0.858107	0.0736858
0.901607	0.0762022
0.956841	0.0806362
1.00775	0.0850385
