Adsorption isotherm of Nitrogen on Mg2(dobdc)
DOI: 10.1039/c1ee01720a
Adsorbate Nitrogen: InChIKey IJGRMHOSHXDMSA-UHFFFAOYSA-N
Temperature: 323 K
Tabular data in the source: 0
pressure (bar)	uptake (mmol/g)
0.0363045	0.0285748
0.179192	0.105477
0.249947	0.14489
0.358337	0.208988
0.50688	0.284093
0.606574	0.34204
0.710258	0.388318
0.783864	0.427815
0.860274	0.46543
0.912259	0.494467
0.962628	0.515598
1.01594	0.540745
