Adsorption isotherm of Nitrogen on Mg2(dobdc)
DOI: 10.1039/c1ee01720a
Adsorbate Nitrogen: InChIKey IJGRMHOSHXDMSA-UHFFFAOYSA-N
Temperature: 293 K
Tabular data in the source: 0
pressure (bar)	uptake (mmol/g)
0.0237605	0.0399929
0.103024	0.136631
0.208661	0.263517
0.310021	0.390276
0.414137	0.513187
0.518063	0.628234
0.618994	0.737298
0.721161	0.838541
0.82195	0.941708
0.900785	1.02065
0.978099	1.09562
1.02766	1.14227
