Adsorption isotherm of Nitrogen on MOF-177
DOI: 10.1039/c1ee01720a
Adsorbate Nitrogen: InChIKey IJGRMHOSHXDMSA-UHFFFAOYSA-N
Temperature: 453 K
Tabular data in the source: 0
pressure (bar)	uptake (mmol/g)
0.0449021	0.00216045
0.301574	0.0172276
0.451746	0.0201593
0.549038	0.0270992
0.60119	0.029679
0.707134	0.0366823
0.753637	0.0403197
0.829258	0.0467345
0.906797	0.057559
0.97161	0.0573012
1.03081	0.0584675
