Adsorption isotherm of Carbon Dioxide on Mg2(dobdc)
DOI: 10.1039/c1ee01720a
Adsorbate Carbon Dioxide: InChIKey CURLTUGMZLYLDI-UHFFFAOYSA-N
Temperature: 313 K
Tabular data in the source: 0
pressure (bar)	uptake (mmol/g)
2.5437	1.38824
3.26393	2.24387
3.98397	3.31378
4.73115	4.45596
5.96759	6.13709
7.5303	8.06642
8.38603	9.52149
9.10548	11.2342
9.98763	13.5473
10.4764	14.6576
10.6528	15.0679
10.9519	15.2914
11.3463	15.4703
