Adsorption isotherm of Carbon Dioxide on Mg2(dobdc)
DOI: 10.1039/c1ee01720a
Adsorbate Carbon Dioxide: InChIKey CURLTUGMZLYLDI-UHFFFAOYSA-N
Temperature: 473 K
Tabular data in the source: 0
pressure (bar)	uptake (mmol/g)
0.0223233	0.06761
0.248722	0.316589
0.350876	0.446899
0.452983	0.561359
0.553428	0.612137
0.652584	0.726036
0.756121	0.824926
0.853754	0.922694
0.95291	1.03659
1.0535	1.13492
