Adsorption isotherm of Nitrogen on Mg2(dobdc)
DOI: 10.1039/c1ee01720a
Adsorbate Nitrogen: InChIKey IJGRMHOSHXDMSA-UHFFFAOYSA-N
Temperature: 393 K
Tabular data in the source: 0
pressure (bar)	uptake (mmol/g)
0.0617258	0.0195008
0.197817	0.0510162
0.308058	0.0739113
0.547072	0.120248
0.650137	0.140967
0.701789	0.156241
0.748831	0.157628
0.806185	0.17307
0.851897	0.178347
0.921795	0.182371
0.952064	0.197016
1.00633	0.202544
