Adsorption isotherm of Nitrogen on MOF-177
DOI: 10.1039/c1ee01720a
Adsorbate Nitrogen: InChIKey IJGRMHOSHXDMSA-UHFFFAOYSA-N
Temperature: 293 K
Tabular data in the source: 0
pressure (bar)	uptake (mmol/g)
0.0208228	0.00601335
0.0854621	0.0174759
0.153461	0.0333587
0.256545	0.0538941
0.41117	0.0846972
0.562912	0.115479
0.717458	0.145549
0.847094	0.171774
0.920861	0.187699
1.02983	0.209376
