Adsorption isotherm of Nitrogen on MOF-177
DOI: 10.1039/c1ee01720a
Adsorbate Nitrogen: InChIKey IJGRMHOSHXDMSA-UHFFFAOYSA-N
Temperature: 413 K
Tabular data in the source: 0
pressure (bar)	uptake (mmol/g)
0.0496244	0.00585805
0.300528	0.020883
0.448767	0.0325917
0.55586	0.0502261
0.674347	0.0532919
0.707515	0.0535349
0.797319	0.0578558
0.858321	0.062332
0.910394	0.0641787
0.973037	0.0704984
1.01537	0.0755705
