Adsorption isotherm of Nitrogen on Mg2(dobdc)
DOI: 10.1039/c1ee01720a
Adsorbate Nitrogen: InChIKey IJGRMHOSHXDMSA-UHFFFAOYSA-N
Temperature: 363 K
Tabular data in the source: 0
pressure (bar)	uptake (mmol/g)
0.0591604	0.031213
0.198102	0.0628124
0.30421	0.0914797
0.404567	0.118013
0.506255	0.140656
0.602336	0.167063
0.702599	0.189664
0.806283	0.235942
0.854846	0.241302
0.929164	0.251351
0.953588	0.259929
1.00514	0.271271
