Adsorption isotherm of Nitrogen on MOF-177
DOI: 10.1039/c1ee01720a
Adsorbate Nitrogen: InChIKey IJGRMHOSHXDMSA-UHFFFAOYSA-N
Temperature: 433 K
Tabular data in the source: 0
pressure (bar)	uptake (mmol/g)
0.0217498	0.00125824
0.179965	0.0119411
0.45799	0.0246007
0.556605	0.0304513
0.647851	0.0347828
0.701841	0.0410391
0.823094	0.0430263
0.846206	0.043562
0.906535	0.0418061
0.979074	0.0463668
1.0041	0.0513121
