Adsorption isotherm of Carbon Dioxide on Mg2(dobdc)
DOI: 10.1039/c1ee01720a
Adsorbate Carbon Dioxide: InChIKey CURLTUGMZLYLDI-UHFFFAOYSA-N
Temperature: 383 K
Tabular data in the source: 0
pressure (bar)	uptake (mmol/g)
0.044106	0.451949
0.202006	1.47999
0.252836	1.71143
0.355926	2.15875
0.457586	2.62164
0.551494	2.95632
0.661541	3.26239
0.758353	3.58179
0.911385	3.95939
1.06123	4.25718
