Adsorption isotherm of Nitrogen on MOF-177
DOI: 10.1039/c1ee01720a
Adsorbate Nitrogen: InChIKey IJGRMHOSHXDMSA-UHFFFAOYSA-N
Temperature: 383 K
Tabular data in the source: 0
pressure (bar)	uptake (mmol/g)
0.0496244	0.00585805
0.24729	0.0215919
0.54922	0.0421188
0.609613	0.0542829
0.65827	0.0645295
0.713069	0.0649309
0.775434	0.0686845
0.860873	0.0726071
0.912945	0.0744538
0.959408	0.0777246
1.00611	0.0831949
