Adsorption isotherm of Nitrogen on Mg2(dobdc)
DOI: 10.1039/c1ee01720a
Adsorbate Nitrogen: InChIKey IJGRMHOSHXDMSA-UHFFFAOYSA-N
Temperature: 463 K
Tabular data in the source: 0
pressure (bar)	uptake (mmol/g)
0.0586367	0.00958654
0.251605	0.0368842
0.404374	0.0512095
0.451607	0.0604599
0.651417	0.0761714
0.725497	0.0763899
0.772824	0.0895724
0.803141	0.106183
0.877221	0.106401
0.919986	0.107662
0.972873	0.115114
0.999815	0.110014
