Adsorption isotherm of Nitrogen on Mg2(dobdc)
DOI: 10.1039/c1ee01720a
Adsorbate Nitrogen: InChIKey IJGRMHOSHXDMSA-UHFFFAOYSA-N
Temperature: 473 K
Tabular data in the source: 0
pressure (bar)	uptake (mmol/g)
0.0201001	0.00648625
0.268426	0.0255921
0.403946	0.0335151
0.500643	0.0265415
0.571919	0.028642
0.649087	0.0387747
0.717417	0.036859
0.748969	0.0456474
0.785178	0.0702901
0.822337	0.0753144
0.923358	0.0704329
0.998863	0.0706934
