Adsorption isotherm of Carbon Dioxide on MOF-177
DOI: 10.1039/c1ee01720a
Adsorbate Carbon Dioxide: InChIKey CURLTUGMZLYLDI-UHFFFAOYSA-N
Temperature: 343 K
Tabular data in the source: 0
pressure (bar)	uptake (mmol/g)
0.0258296	0.0196442
0.204166	0.0951233
0.25695	0.117231
0.308258	0.135856
0.406623	0.172988
0.506464	0.213603
0.603441	0.252418
0.707562	0.294873
0.808848	0.337249
0.908835	0.386474
1.00859	0.421923
