Adsorption isotherm of Carbon Dioxide on Mg2(dobdc)
DOI: 10.1039/c1ee01720a
Adsorbate Carbon Dioxide: InChIKey CURLTUGMZLYLDI-UHFFFAOYSA-N
Temperature: 343 K
Tabular data in the source: 0
pressure (bar)	uptake (mmol/g)
0.0213824	0.748619
0.104413	2.39609
0.215744	3.63705
0.316583	4.32157
0.373456	4.60169
0.472118	5.04817
0.618052	5.51947
0.769514	5.8651
0.934211	6.19739
1.06611	6.41257
