Adsorption isotherm of Carbon Dioxide on Mg2(dobdc)
DOI: 10.1039/c1ee01720a
Adsorbate Carbon Dioxide: InChIKey CURLTUGMZLYLDI-UHFFFAOYSA-N
Temperature: 323 K
Tabular data in the source: 0
pressure (bar)	uptake (mmol/g)
0.0825135	0.121571
2.61208	0.985591
3.98464	2.5757
5.20735	4.39927
5.99545	5.42367
6.81065	6.56795
7.53082	7.49501
8.45452	8.9998
9.73058	11.9917
10.3958	13.5361
10.7625	14.1665
11.0752	14.3428
11.388	14.4954
