Adsorption isotherm of Nitrogen on MOF-177
DOI: 10.1039/c1ee01720a
Adsorbate Nitrogen: InChIKey IJGRMHOSHXDMSA-UHFFFAOYSA-N
Temperature: 403 K
Tabular data in the source: 0
pressure (bar)	uptake (mmol/g)
0.0496244	0.00585805
0.301811	0.0194272
0.455502	0.0282454
0.554355	0.0362956
0.603543	0.0381212
0.702	0.0425055
0.748344	0.0446765
0.80502	0.049121
0.877639	0.0544149
0.958751	0.0583059
1.01266	0.063829
