Adsorption isotherm of Carbon Dioxide on Mg2(dobdc)
DOI: 10.1039/c1ee01720a
Adsorbate Carbon Dioxide: InChIKey CURLTUGMZLYLDI-UHFFFAOYSA-N
Temperature: 393 K
Tabular data in the source: 0
pressure (bar)	uptake (mmol/g)
0.0439658	0.404397
0.205451	1.14797
0.251807	1.36272
0.354803	1.77834
0.460564	2.13112
0.557376	2.45051
0.657093	2.75462
0.756764	3.04287
0.903845	3.4035
1.05812	3.70214
