Adsorption isotherm of Nitrogen on Mg2(dobdc)
DOI: 10.1039/c1ee01720a
Adsorbate Nitrogen: InChIKey IJGRMHOSHXDMSA-UHFFFAOYSA-N
Temperature: 443 K
Tabular data in the source: 0
pressure (bar)	uptake (mmol/g)
0.11466	0.0289193
0.191877	0.041018
0.404612	0.0610396
0.457451	0.0665261
0.49594	0.0676603
0.64776	0.101604
0.724785	0.105838
0.777577	0.109359
0.821816	0.112627
0.900457	0.124768
0.953249	0.128288
0.999151	0.141429
