Adsorption isotherm of Nitrogen on Mg2(dobdc)
DOI: 10.1039/c1ee01720a
Adsorbate Nitrogen: InChIKey IJGRMHOSHXDMSA-UHFFFAOYSA-N
Temperature: 343 K
Tabular data in the source: 0
pressure (bar)	uptake (mmol/g)
0.0405811	0.0287008
0.200052	0.0844809
0.302073	0.120886
0.402478	0.149385
0.554726	0.201023
0.653991	0.241277
0.709967	0.258643
0.781814	0.284336
0.855087	0.310071
0.906739	0.325346
0.958391	0.340621
1.00714	0.353845
