Adsorption isotherm of Carbon Dioxide on Mg2(dobdc)
DOI: 10.1039/c1ee01720a
Adsorbate Carbon Dioxide: InChIKey CURLTUGMZLYLDI-UHFFFAOYSA-N
Temperature: 463 K
Tabular data in the source: 0
pressure (bar)	uptake (mmol/g)
0.0521657	0.184174
0.303885	0.517174
0.35125	0.573703
0.453311	0.672313
0.553989	0.802343
0.653145	0.916241
0.755159	0.999001
0.854222	1.0812
0.951949	1.21067
1.05396	1.29343
