Adsorption isotherm of Carbon Dioxide on Mg2(dobdc)
DOI: 10.1039/c1ee01720a
Adsorbate Carbon Dioxide: InChIKey CURLTUGMZLYLDI-UHFFFAOYSA-N
Temperature: 353 K
Tabular data in the source: 0
pressure (bar)	uptake (mmol/g)
0.023726	0.543124
0.117815	1.93923
0.207409	2.81171
0.312676	3.49706
0.415952	4.00778
0.505526	4.37333
0.615667	4.7111
0.765934	5.15154
0.91578	5.44934
1.06701	5.71571
