Adsorption isotherm of Carbon Dioxide on MOF-177
DOI: 10.1039/c1ee01720a
Adsorbate Carbon Dioxide: InChIKey CURLTUGMZLYLDI-UHFFFAOYSA-N
Temperature: 348 K
Tabular data in the source: 0
pressure (bar)	uptake (mmol/g)
0.0258296	0.0196442
0.202515	0.0813085
0.252406	0.0998941
0.305131	0.118558
0.406272	0.152324
0.505995	0.186052
0.607224	0.224984
0.709869	0.263955
0.805341	0.297565
0.912472	0.35043
1.00794	0.38404
