Adsorption isotherm of Carbon Dioxide on MOF-177
DOI: 10.1039/c1ee01720a
Adsorbate Carbon Dioxide: InChIKey CURLTUGMZLYLDI-UHFFFAOYSA-N
Temperature: 293 K
Tabular data in the source: 0
pressure (bar)	uptake (mmol/g)
0.025976	0.0282541
0.0848671	0.0763475
0.205864	0.194998
0.306641	0.290716
0.413057	0.384869
0.512417	0.480548
0.611748	0.574506
0.715418	0.673746
0.814778	0.769426
0.919835	0.866983
1.01922	0.964385
