Adsorption isotherm of Nitrogen on MOF-177
DOI: 10.1039/c1ee01720a
Adsorbate Nitrogen: InChIKey IJGRMHOSHXDMSA-UHFFFAOYSA-N
Temperature: 333 K
Tabular data in the source: 0
pressure (bar)	uptake (mmol/g)
0.0689655	0.0114943
0.256046	0.0359417
0.349487	0.047249
0.403794	0.056438
0.508969	0.0696628
0.608337	0.0824787
0.710668	0.0960489
0.808475	0.107754
0.88473	0.120035
0.963631	0.130136
1.01478	0.136738
