Adsorption isotherm of Carbon Dioxide on MOF-177
DOI: 10.1039/c1ee01720a
Adsorbate Carbon Dioxide: InChIKey CURLTUGMZLYLDI-UHFFFAOYSA-N
Temperature: 323 K
Tabular data in the source: 0
pressure (bar)	uptake (mmol/g)
0.0258589	0.0213662
0.206081	0.124436
0.257448	0.146505
0.30468	0.175344
0.409123	0.23674
0.509256	0.294575
0.610748	0.349005
0.712269	0.405157
0.809685	0.469802
0.912594	0.524271
1.00995	0.585472
