Adsorption isotherm of Nitrogen on MOF-177
DOI: 10.1039/c1ee01720a
Adsorbate Nitrogen: InChIKey IJGRMHOSHXDMSA-UHFFFAOYSA-N
Temperature: 323 K
Tabular data in the source: 0
pressure (bar)	uptake (mmol/g)
0.0529047	0.00954509
0.205098	0.0311729
0.306145	0.0461989
0.40415	0.0597374
0.455375	0.0670723
0.556343	0.0813652
0.658754	0.0956685
0.759643	0.109228
0.865056	0.124652
0.913635	0.134166
1.0132	0.148815
