Adsorption isotherm of Carbon Dioxide on Mg2(dobdc)
DOI: 10.1039/c1ee01720a
Adsorbate Carbon Dioxide: InChIKey CURLTUGMZLYLDI-UHFFFAOYSA-N
Temperature: 433 K
Tabular data in the source: 0
pressure (bar)	uptake (mmol/g)
0.0538285	0.247857
0.257222	0.698403
0.355043	0.859573
0.460242	1.02215
0.553682	1.19832
0.602476	1.23928
0.704724	1.40129
0.805589	1.59473
0.958387	1.89308
1.05759	2.02283
