Adsorption isotherm of Nitrogen on Mg2(dobdc)
DOI: 10.1039/c1ee01720a
Adsorbate Nitrogen: InChIKey IJGRMHOSHXDMSA-UHFFFAOYSA-N
Temperature: 453 K
Tabular data in the source: 0
pressure (bar)	uptake (mmol/g)
0.0586367	0.00958654
0.254171	0.025172
0.456785	0.0390015
0.49708	0.0559061
0.554149	0.0595525
0.746927	0.0789861
0.79815	0.0765663
0.824048	0.0871527
0.873893	0.086657
0.901121	0.0933533
0.95377	0.0909755
1.02372	0.0969661
