Adsorption isotherm of Nitrogen on MOF-177
DOI: 10.1039/c1ee01720a
Adsorbate Nitrogen: InChIKey IJGRMHOSHXDMSA-UHFFFAOYSA-N
Temperature: 343 K
Tabular data in the source: 0
pressure (bar)	uptake (mmol/g)
0.0658833	0.00964017
0.255768	0.0333756
0.351856	0.0425044
0.455351	0.0535191
0.507979	0.060498
0.605825	0.0725701
0.706794	0.086863
0.824908	0.0998162
0.887511	0.105769
0.961809	0.113273
1.01339	0.123908
