Adsorption isotherm of Nitrogen on Mg2(dobdc)
DOI: 10.1039/c1ee01720a
Adsorbate Nitrogen: InChIKey IJGRMHOSHXDMSA-UHFFFAOYSA-N
Temperature: 353 K
Tabular data in the source: 0
pressure (bar)	uptake (mmol/g)
0.0591604	0.031213
0.198198	0.0667445
0.301549	0.0992598
0.402049	0.131691
0.503928	0.162198
0.608705	0.194756
0.704834	0.223129
0.78091	0.246982
0.82819	0.258198
0.901463	0.283933
0.955871	0.29536
1.00861	0.296914
