Adsorption isotherm of Carbon Dioxide on Mg2(dobdc)
DOI: 10.1039/c1ee01720a
Adsorbate Carbon Dioxide: InChIKey CURLTUGMZLYLDI-UHFFFAOYSA-N
Temperature: 333 K
Tabular data in the source: 0
pressure (bar)	uptake (mmol/g)
0.0223642	1.08148
0.0863973	2.7887
0.151325	3.79906
0.258862	4.75416
0.31426	5.034
0.418918	5.5133
0.566421	6.01659
0.716454	6.37778
0.919661	6.76493
1.06927	6.98347
