Adsorption isotherm of Nitrogen on Mg2(dobdc)
DOI: 10.1039/c1ee01720a
Adsorbate Nitrogen: InChIKey IJGRMHOSHXDMSA-UHFFFAOYSA-N
Temperature: 433 K
Tabular data in the source: 0
pressure (bar)	uptake (mmol/g)
0.0617258	0.0195008
0.300549	0.057973
0.403329	0.0668958
0.451987	0.0761882
0.550491	0.084985
0.603711	0.1062
0.749162	0.112451
0.772303	0.126885
0.803808	0.133707
0.859641	0.145176
0.956624	0.149999
1.02381	0.159837
