Adsorption isotherm of Nitrogen on Mg2(dobdc)
DOI: 10.1039/c1ee01720a
Adsorbate Nitrogen: InChIKey IJGRMHOSHXDMSA-UHFFFAOYSA-N
Temperature: 333 K
Tabular data in the source: 0
pressure (bar)	uptake (mmol/g)
0.0363045	0.0285748
0.200337	0.0962771
0.301123	0.140505
0.403335	0.184774
0.555916	0.250174
0.65808	0.292478
0.708402	0.311642
0.783338	0.34725
0.858084	0.374993
0.909736	0.390267
0.958727	0.413322
1.01057	0.436461
