Adsorption isotherm of Carbon Dioxide on Mg2(dobdc)
DOI: 10.1039/c1ee01720a
Adsorbate Carbon Dioxide: InChIKey CURLTUGMZLYLDI-UHFFFAOYSA-N
Temperature: 373 K
Tabular data in the source: 0
pressure (bar)	uptake (mmol/g)
0.0412948	0.498939
0.144264	1.40564
0.211889	1.83038
0.311159	2.48291
0.412726	2.9141
0.508483	3.37587
0.611152	3.68054
0.758561	4.15212
0.914544	4.53029
1.06144	4.82752
