Adsorption isotherm of Carbon Dioxide on MOF-177
DOI: 10.1039/c1ee01720a
Adsorbate Carbon Dioxide: InChIKey CURLTUGMZLYLDI-UHFFFAOYSA-N
Temperature: 423 K
Tabular data in the source: 0
pressure (bar)	uptake (mmol/g)
0.025654	0.00931233
0.206181	0.0469861
0.257284	0.0535569
0.304195	0.0634546
0.403508	0.0730742
0.507249	0.0931428
0.60668	0.10965
0.706169	0.129602
0.807192	0.15648
0.912379	0.17831
0.974878	0.188637
