Adsorption isotherm of Nitrogen on Mg2(dobdc)
DOI: 10.1039/c1ee01720a
Adsorbate Nitrogen: InChIKey IJGRMHOSHXDMSA-UHFFFAOYSA-N
Temperature: 423 K
Tabular data in the source: 0
pressure (bar)	uptake (mmol/g)
0.0617258	0.0195008
0.197959	0.0569143
0.303924	0.0796834
0.447095	0.109443
0.507157	0.119071
0.601813	0.145437
0.785136	0.186202
0.806757	0.196663
0.853799	0.198049
0.925408	0.213912
0.958195	0.214878
1.0041	0.228019
