Adsorption isotherm of Nitrogen on MOF-177
DOI: 10.1039/c1ee01720a
Adsorbate Nitrogen: InChIKey IJGRMHOSHXDMSA-UHFFFAOYSA-N
Temperature: 473 K
Tabular data in the source: 0
pressure (bar)	uptake (mmol/g)
0.0217498	0.00125824
0.301217	0.0139283
0.450304	0.0201487
0.554608	0.0253085
0.6213	0.0290938
0.724003	0.0327766
0.803911	0.0388565
0.848163	0.0483382
0.924791	0.0507311
0.956556	0.0513301
1.00474	0.0571776
