Adsorption isotherm of Carbon Dioxide on Mg2(dobdc)
DOI: 10.1039/c1ee01720a
Adsorbate Carbon Dioxide: InChIKey CURLTUGMZLYLDI-UHFFFAOYSA-N
Temperature: 363 K
Tabular data in the source: 0
pressure (bar)	uptake (mmol/g)
0.0114057	0.366525
0.122783	1.62334
0.209051	2.36845
0.314318	3.05381
0.410262	3.57898
0.508784	3.97791
0.614638	4.36239
0.764999	4.83453
0.916461	5.18016
1.06474	5.44597
