Adsorption isotherm of Nitrogen on MOF-177
DOI: 10.1039/c1ee01720a
Adsorbate Nitrogen: InChIKey IJGRMHOSHXDMSA-UHFFFAOYSA-N
Temperature: 423 K
Tabular data in the source: 0
pressure (bar)	uptake (mmol/g)
0.0217498	0.00125824
0.176922	0.0104536
0.356451	0.0183623
0.505935	0.0282486
0.62454	0.0324142
0.721396	0.0353216
0.804149	0.041056
0.881252	0.047848
0.923111	0.048521
0.954876	0.04912
1.02141	0.0514389
