Adsorption isotherm of Nitrogen on Mg2(dobdc)
DOI: 10.1039/c1ee01720a
Adsorbate Nitrogen: InChIKey IJGRMHOSHXDMSA-UHFFFAOYSA-N
Temperature: 303 K
Tabular data in the source: 0
pressure (bar)	uptake (mmol/g)
0.0411048	0.0503273
0.102357	0.109107
0.205759	0.202527
0.30631	0.295864
0.463504	0.434091
0.562581	0.52542
0.668501	0.605162
0.767436	0.690592
0.870647	0.776149
0.92002	0.814932
0.970817	0.853757
1.02589	0.892708
