Adsorption isotherm of Carbon Dioxide on Mg2(dobdc)
DOI: 10.1039/c1ee01720a
Adsorbate Carbon Dioxide: InChIKey CURLTUGMZLYLDI-UHFFFAOYSA-N
Temperature: 313 K
Tabular data in the source: 0
pressure (bar)	uptake (mmol/g)
0.0156868	1.31783
0.0432469	3.1607
0.108195	4.67799
0.193455	5.58133
0.271317	5.97633
0.372884	6.40752
0.520105	6.8157
0.729402	7.26737
0.921037	7.73152
1.07074	7.98176
