Adsorption isotherm of Nitrogen on Mg2(dobdc)
DOI: 10.1039/c1ee01720a
Adsorbate Nitrogen: InChIKey IJGRMHOSHXDMSA-UHFFFAOYSA-N
Temperature: 313 K
Tabular data in the source: 0
pressure (bar)	uptake (mmol/g)
0.039346	0.036523
0.103259	0.0875224
0.178529	0.136892
0.303313	0.230942
0.453757	0.325749
0.608859	0.43641
0.710074	0.498332
0.7852	0.541804
0.863321	0.591257
0.916875	0.626234
0.966104	0.659119
1.01951	0.688198
