Adsorption isotherm of Nitrogen on Mg2(dobdc)
DOI: 10.1039/c1ee01720a
Adsorbate Nitrogen: InChIKey IJGRMHOSHXDMSA-UHFFFAOYSA-N
Temperature: 413 K
Tabular data in the source: 0
pressure (bar)	uptake (mmol/g)
0.0617258	0.0195008
0.303543	0.0639551
0.399291	0.0765999
0.453651	0.0860604
0.545027	0.0946472
0.606705	0.112182
0.75515	0.124415
0.781047	0.135001
0.851421	0.158686
0.905686	0.164215
0.957148	0.171625
1.02291	0.181422
