Adsorption isotherm of Carbon Dioxide on Mg2(dobdc)
DOI: 10.1039/c1ee01720a
Adsorbate Carbon Dioxide: InChIKey CURLTUGMZLYLDI-UHFFFAOYSA-N
Temperature: 303 K
Tabular data in the source: 0
pressure (bar)	uptake (mmol/g)
0.0144653	1.90374
0.0277412	2.90428
0.0534311	4.11313
0.10093	5.21523
0.142178	5.69832
0.220647	6.29937
0.422025	7.06637
0.674633	7.70052
0.870695	8.16552
1.09461	8.57244
