Adsorption isotherm of Nitrogen on MIL-53
DOI: 10.1016/j.ijhydene.2012.01.166
Adsorbate Nitrogen: InChIKey IJGRMHOSHXDMSA-UHFFFAOYSA-N
Temperature: 77 K
Tabular data in the source: 0
pressure (bar)	uptake (cm3(STP)/g)
0.0001	119.756
0.000148399	124.178
0.000214501	129.329
0.000372761	138.153
0.000524807	144.766
0.000682794	146.982
0.00121818	155.808
0.00185597	158.769
0.00290309	164.658
0.00442293	169.082
0.00768617	173.516
0.0111099	177.935
0.020893	182.376
0.0301995	187.527
0.0414133	191.21
0.0738873	197.11
0.138949	206.672
0.247905	215.499
0.387767	225.047
0.531758	233.852
0.656361	241.186
0.768624	248.516
