Adsorption isotherm of Hydrogen on MS-5A
DOI: 10.1016/j.ijhydene.2012.01.166
Adsorbate Hydrogen: InChIKey UFHFLCQGNIYNRP-UHFFFAOYSA-N
Temperature: 77 K
Tabular data in the source: 0
pressure (bar)	uptake (mmol/g)
0.80964	3.22053
1.64443	4.07578
3.53685	4.66959
6.69997	4.80516
10.9186	4.87641
15.351	4.68512
20.8397	4.36381
26.1216	3.64802
32.2494	2.73622
38.5868	1.95611
