Adsorption isotherm of Nitrogen on MAXSORB
DOI: 10.1016/j.ijhydene.2012.01.166
Adsorbate Nitrogen: InChIKey IJGRMHOSHXDMSA-UHFFFAOYSA-N
Temperature: 77 K
Tabular data in the source: 0
pressure (bar)	uptake (cm3(STP)/g)
9.56269e-07	9.90099
2.11963e-06	34.6535
5.13334e-06	59.4059
1.08878e-05	79.2079
2.30776e-05	113.861
4.28312e-05	148.515
7.94749e-05	188.119
0.000141111	222.772
0.000261782	267.327
0.000444672	301.98
0.000789369	341.584
0.0014647	381.188
0.00238073	410.891
0.00386972	440.594
0.00750723	475.248
0.0121997	509.901
0.019834	534.653
0.0295128	559.406
0.0419672	608.911
0.0597283	638.614
0.0711623	683.168
0.0927171	707.921
0.0967854	737.624
0.126103	762.376
0.13161	797.03
0.164082	816.832
0.171135	866.337
0.213407	881.188
0.265769	925.743
0.289935	960.396
0.514681	1000
0.83621	1039.6
