Adsorption isotherm of Nitrogen on MAXSORB
DOI: 10.1016/j.ijhydene.2012.01.166
Adsorbate Nitrogen: InChIKey IJGRMHOSHXDMSA-UHFFFAOYSA-N
Temperature: 77 K
Tabular data in the source: 0
pressure (bar)	uptake (cm3(STP)/g)
0.00586365	269.231
0.00596303	307.692
0.00819207	170.33
0.00866769	354.396
0.00888775	439.56
0.00898714	478.022
0.0142119	500
0.0324701	565.934
0.0506928	618.132
0.0766675	670.33
0.094869	714.286
0.102663	730.769
0.15457	818.681
0.206427	887.363
0.253045	928.571
0.299621	953.297
0.35392	967.033
0.408212	978.022
0.46249	983.516
0.506446	994.505
0.552979	1002.75
0.604672	1008.24
0.651198	1013.74
0.705476	1019.23
0.751988	1019.23
0.801097	1024.73
0.852798	1032.97
0.89931	1032.97
0.956186	1043.96
0.982054	1054.95
