Adsorption isotherm of Nitrogen on MS-5A
DOI: 10.1016/j.ijhydene.2012.01.166
Adsorbate Nitrogen: InChIKey IJGRMHOSHXDMSA-UHFFFAOYSA-N
Temperature: 77 K
Tabular data in the source: 0
pressure (bar)	uptake (cm3(STP)/g)
0.000144401	112.69
0.000167263	114.213
0.000208521	114.822
0.000266397	116.041
0.000308574	116.954
0.000340338	116.954
0.000424287	118.173
0.000528932	119.086
0.000692516	119.695
0.000952182	121.218
0.00113029	121.827
0.00124664	122.437
0.00147982	123.35
0.0018906	124.569
0.00235689	125.482
0.00293826	126.396
0.00375379	127.614
0.00467961	128.528
0.00583391	129.442
0.00763801	130.355
0.00929159	131.574
0.0115832	133.096
0.0137499	133.096
0.0171412	134.01
0.0213693	134.924
0.0273005	135.838
0.0340338	136.751
0.0479568	137.665
0.0597861	138.579
0.0745315	139.492
0.208521	141.929
0.259953	142.538
0.324069	143.452
0.424287	144.365
0.542055	144.975
0.675751	145.584
0.884725	148.325
0.95219	153.503
0.975802	162.335
1	169.949
