Adsorption isotherm of Nitrogen on Zeolite 13X
DOI: 10.1016/j.ijhydene.2012.01.166
Adsorbate Nitrogen: InChIKey IJGRMHOSHXDMSA-UHFFFAOYSA-N
Temperature: 77 K
Tabular data in the source: 0
pressure (bar)	uptake (cm3(STP)/g)
0.000257194	137.211
0.000325702	138.407
0.000393432	139.607
0.000486609	142.017
0.000601852	143.821
0.000744372	143.807
0.000780387	145.016
0.000965206	145.002
0.00122231	146.199
0.00147649	148.005
0.00186978	148.595
0.00200706	149.803
0.00254173	150.393
0.00321877	150.984
0.00345509	151.585
0.00437552	152.176
0.00541165	153.374
0.0066933	154.572
0.00847637	154.556
0.0107342	155.753
0.0129664	156.953
0.0160373	156.939
0.0203091	157.529
0.0251189	158.727
0.0318097	159.318
0.0402838	160.514
0.0486609	161.714
0.0616226	161.699
0.0646041	162.301
0.0799024	163.5
0.101188	163.484
0.125151	164.682
0.158489	164.667
0.196023	165.259
0.24824	166.455
0.307029	167.653
0.370878	168.853
0.45871	170.657
0.567343	173.068
0.685326	176.085
0.789652	180.319
0.90986	187.582
0.953866	205.761
0.97666	240.911
