Adsorption isotherm of Nitrogen on MS-5A
DOI: 10.1016/j.ijhydene.2012.01.166
Adsorbate Nitrogen: InChIKey IJGRMHOSHXDMSA-UHFFFAOYSA-N
Temperature: 77 K
Tabular data in the source: 0
pressure (bar)	uptake (cm3(STP)/g)
0.00304878	0.00304878
0.00609756	131.424
0.0213415	135.699
0.0487805	138.537
0.0853659	139.939
0.121951	141.341
0.14939	141.322
0.176829	141.302
0.20122	142.713
0.231707	141.977
0.25	143.393
0.292683	143.362
0.353659	144.033
0.405488	143.996
0.426829	144.695
0.466463	144.667
0.487805	145.366
0.512195	146.777
0.54878	146.751
0.612805	145.991
0.64939	145.25
0.70122	145.928
0.740854	145.899
0.79878	146.572
0.844512	147.968
0.881098	148.656
0.89939	150.072
0.926829	151.481
0.948171	152.18
0.969512	157.879
0.984756	171.439
