Adsorption isotherm of Nitrogen on ZIF-8
DOI: 10.1016/j.ijhydene.2012.01.166
Adsorbate Nitrogen: InChIKey IJGRMHOSHXDMSA-UHFFFAOYSA-N
Temperature: 77 K
Tabular data in the source: 0
pressure (bar)	uptake (cm3(STP)/g)
0.00308642	150.968
0.00617284	241.935
0.00925926	338.71
0.0185185	394.839
0.0308642	404.516
0.0462963	406.452
0.0740741	408.387
0.095679	408.387
0.123457	408.387
0.141975	410.323
0.169753	412.258
0.197531	410.323
0.228395	410.323
0.25	412.258
0.302469	414.194
0.351852	416.129
0.401235	414.194
0.450617	418.065
0.496914	418.065
0.549383	418.065
0.601852	420
0.648148	421.935
0.700617	421.935
0.756173	425.806
0.802469	425.806
0.851852	427.742
0.901235	431.613
0.92284	433.548
0.950617	437.419
0.972222	452.903
0.975309	476.129
