Adsorption isotherm of Hydrogen on MIL-53
DOI: 10.1016/j.ijhydene.2012.01.166
Adsorbate Hydrogen: InChIKey UFHFLCQGNIYNRP-UHFFFAOYSA-N
Temperature: 77 K
Tabular data in the source: 0
pressure (bar)	uptake (mmol/g)
0.172414	2.03009
0.689655	4.3876
1.72414	5.8938
3.7931	6.8761
7.58621	7.39999
11.7241	7.39999
17.7586	7.00707
22.4138	6.67964
26.5517	6.67964
31.0345	6.02477
35.5172	5.56636
40.1724	5.04247
