Adsorption isotherm of Nitrogen on Zeolite 13X
DOI: 10.1016/j.ijhydene.2012.01.166
Adsorbate Nitrogen: InChIKey IJGRMHOSHXDMSA-UHFFFAOYSA-N
Temperature: 77 K
Tabular data in the source: 0
pressure (bar)	uptake (cm3(STP)/g)
0.00304878	0.00304878
0.0121951	157.134
0.0426829	162.112
0.0853659	164.225
0.112805	164.205
0.152439	164.891
0.195122	164.861
0.22561	165.553
0.25	167.679
0.271341	168.378
0.301829	168.356
0.332317	168.334
0.378049	169.73
0.408537	169.708
0.435976	169.689
0.484756	172.511
0.509146	173.208
0.567073	173.881
0.60061	174.571
0.64939	174.536
0.70122	175.213
0.75	178.036
0.801829	179.427
0.847561	182.966
0.878049	185.801
0.926829	196.481
0.945122	206.468
0.969512	223.593
0.978659	233.587
0.984756	244.297
