Adsorption isotherm of Nitrogen on CuBTC
DOI: 10.1016/j.ijhydene.2012.01.166
Adsorbate Nitrogen: InChIKey IJGRMHOSHXDMSA-UHFFFAOYSA-N
Temperature: 77 K
Tabular data in the source: 0
pressure (bar)	uptake (cm3(STP)/g)
0.00063706	179.038
0.0007722	180.042
0.000913777	181.213
0.000982132	182.05
0.00119047	182.552
0.00147812	183.556
0.00179168	184.393
0.00217175	185.23
0.00269656	186.067
0.00334811	186.904
0.00405845	187.573
0.00491938	188.745
0.00610801	189.079
0.00758403	189.916
0.00941651	190.586
0.011692	191.423
0.0141723	192.259
0.0175967	192.427
0.0208228	193.431
0.0258541	194.268
0.0313386	195.105
0.0379866	195.774
0.0449511	196.946
0.0531925	197.95
0.0644763	198.619
0.0744835	199.791
0.0881394	200.628
0.10182	201.632
0.12342	202.134
0.149601	202.971
0.181337	203.808
0.219805	204.31
0.27956	204.644
0.338864	205.314
0.430988	205.481
0.535131	205.816
0.664437	206.318
0.805388	206.82
0.930397	207.824
0.976239	209.331
