Adsorption isotherm of Hydrogen on MAXSORB
DOI: 10.1016/j.ijhydene.2012.01.166
Adsorbate Hydrogen: InChIKey UFHFLCQGNIYNRP-UHFFFAOYSA-N
Temperature: 77 K
Tabular data in the source: 0
pressure (bar)	uptake (mmol/g)
0.32167	2.50556
0.788205	8.10968
1.28782	9.89039
1.9534	12.3306
2.28078	14.1769
3.80757	16.2889
4.99444	18.0049
6.53207	18.8644
8.0697	19.7239
9.95409	20.1885
11.8373	20.7849
15.9563	20.9235
20.7654	20.6677
26.2657	19.8857
29.0182	19.2311
32.1128	18.7088
35.3814	17.9231
38.1327	17.4003
