Adsorption isotherm of Hydrogen on Zeolite 13X
DOI: 10.1016/j.ijhydene.2012.01.166
Adsorbate Hydrogen: InChIKey UFHFLCQGNIYNRP-UHFFFAOYSA-N
Temperature: 77 K
Tabular data in the source: 0
pressure (bar)	uptake (mmol/g)
0.196298	1.38003
1.01083	4.14065
2.26895	4.86504
5.2204	5.06603
8.38421	5.13589
12.6057	4.94433
17.4593	4.8193
22.5232	4.76025
28.4338	4.4395
34.1327	4.18417
40.6748	3.99566
47.0073	3.67546
53.1268	3.5521
