Adsorption isotherm of Hydrogen on CuBTC
DOI: 10.1016/j.ijhydene.2012.01.166
Adsorbate Hydrogen: InChIKey UFHFLCQGNIYNRP-UHFFFAOYSA-N
Temperature: 77 K
Tabular data in the source: 0
pressure (bar)	uptake (mmol/g)
0.172414	3.07787
0.344828	4.64955
1.03448	12.7699
2.06897	16.5681
2.75862	17.7469
3.44828	18.6637
5	19.3186
6.2069	19.9079
8.27586	20.0389
10	20.1699
12.931	20.2354
14.6552	20.3663
17.5862	20.3009
19.8276	20.2354
22.931	20.1699
25.3448	20.0389
