Adsorption isotherm of Nitrogen on MIL-53
DOI: 10.1016/j.ijhydene.2012.01.166
Adsorbate Nitrogen: InChIKey IJGRMHOSHXDMSA-UHFFFAOYSA-N
Temperature: 77 K
Tabular data in the source: 0
pressure (bar)	uptake (cm3(STP)/g)
0.00308642	0.00308642
0.00617284	168.387
0.0185185	180
0.0462963	193.548
0.0895062	199.355
0.101852	203.226
0.12963	209.032
0.169753	212.903
0.194444	214.839
0.225309	214.839
0.25	218.71
0.274691	218.71
0.299383	222.581
0.32716	222.581
0.354938	222.581
0.398148	226.452
0.453704	230.323
0.496914	232.258
0.546296	234.194
0.601852	238.065
0.645062	240
0.697531	245.806
0.75	251.613
0.799383	257.419
0.854938	270.968
0.873457	278.71
0.898148	294.194
0.92284	317.419
0.935185	348.387
0.944444	377.419
0.95679	421.935
0.969136	495.484
0.978395	588.387
0.984568	627.097
