Adsorption isotherm of Hydrogen on ZIF-8
DOI: 10.1016/j.ijhydene.2012.01.166
Adsorbate Hydrogen: InChIKey UFHFLCQGNIYNRP-UHFFFAOYSA-N
Temperature: 77 K
Tabular data in the source: 0
pressure (bar)	uptake (mmol/g)
0.344828	2.75044
0.862069	4.51858
1.2069	5.95928
1.72414	7.20353
1.89655	8.12034
2.75862	9.36459
3.27586	10.1504
4.48276	11.0018
5.68966	11.8531
7.06897	12.3115
8.62069	12.7699
12.7586	13.3593
17.069	13.3593
21.8966	13.3593
