Adsorption isotherm of Nitrogen on ZIF-8
DOI: 10.1016/j.ijhydene.2012.01.166
Adsorbate Nitrogen: InChIKey IJGRMHOSHXDMSA-UHFFFAOYSA-N
Temperature: 77 K
Tabular data in the source: 0
pressure (bar)	uptake (cm3(STP)/g)
5.22974e-05	106.897
6.66884e-05	113.793
8.73675e-05	122.989
0.00010555	129.885
0.000134595	136.782
0.000176332	143.678
0.000224859	152.874
0.000286735	162.069
0.000365637	171.264
0.000466251	182.759
0.000519446	201.149
0.000644733	198.851
0.000844676	208.046
0.00107711	217.241
0.0013735	226.437
0.00175146	235.632
0.00223342	244.828
0.00284807	254.023
0.00363178	263.218
0.00475795	270.115
0.00590554	281.609
0.00753061	290.805
0.00960285	304.598
0.0116017	318.391
0.0147941	325.287
0.0188651	336.782
0.0240564	345.977
0.029063	359.77
0.0360728	371.264
0.0460002	380.46
0.0586584	387.356
0.0768475	394.253
0.0833336	401.149
0.103434	410.345
0.128382	410.345
0.159348	412.644
0.197783	410.345
0.252209	414.943
0.313041	414.943
0.388546	414.943
0.509032	419.54
0.631811	419.54
0.784202	424.138
0.973352	437.931
1	481.609
