Adsorption isotherm of Nitrogen on SWCNT
DOI: 10.1016/j.ijhydene.2012.01.166
Adsorbate Nitrogen: InChIKey IJGRMHOSHXDMSA-UHFFFAOYSA-N
Temperature: 77 K
Tabular data in the source: 0
pressure (bar)	uptake (cm3(STP)/g)
8.74702e-05	59.7345
0.000145476	69.6903
0.000276605	79.646
0.000512035	89.6018
0.000874702	102.876
0.00127248	106.195
0.00180223	116.15
0.00235554	116.15
0.00307872	122.788
0.0047252	126.106
0.00706057	136.062
0.0114325	146.018
0.0180223	152.655
0.0284112	162.611
0.0460034	165.929
0.0669237	175.885
0.127248	199.115
0.195298	215.708
0.284111	242.257
0.460035	275.442
0.634346	318.584
0.765105	384.956
0.851594	467.92
0.898439	544.248
0.94786	693.584
