Adsorption isotherm of Hydrogen on SWCNT
DOI: 10.1016/j.ijhydene.2012.01.166
Adsorbate Hydrogen: InChIKey UFHFLCQGNIYNRP-UHFFFAOYSA-N
Temperature: 77 K
Tabular data in the source: 0
pressure (bar)	uptake (cm3(STP)/g)
0.00298077	0.510869
0.0117394	1.09511
0.0464633	1.82714
0.0955543	2.34138
0.124401	2.48938
0.150381	2.71013
0.170568	2.78455
0.202283	2.85981
0.248435	3.08203
0.303205	3.15898
0.35224	3.3814
0.401246	3.45793
0.447356	3.46129
0.499244	3.53803
0.551132	3.61476
0.600124	3.61834
0.65488	3.62233
0.706768	3.69907
0.750011	3.77517
0.799003	3.77875
0.853773	3.85569
0.920056	3.86053
0.969048	3.8641
1.01514	3.79451
