Adsorption isotherm of Nitrogen on SWCNT
DOI: 10.1016/j.ijhydene.2012.01.166
Adsorbate Nitrogen: InChIKey IJGRMHOSHXDMSA-UHFFFAOYSA-N
Temperature: 77 K
Tabular data in the source: 0
pressure (bar)	uptake (cm3(STP)/g)
0.00266917	32.967
0.0079649	82.4176
0.00812108	142.857
0.0236746	162.088
0.049557	178.571
0.101258	186.813
0.124542	197.802
0.15298	203.297
0.17625	208.791
0.202111	217.033
0.256403	228.022
0.282264	236.264
0.354651	250
0.401184	258.242
0.452892	269.231
0.5046	280.22
0.551133	288.462
0.649402	318.681
0.701124	335.165
0.747686	354.396
0.799443	384.615
0.856405	428.571
0.871965	450.549
0.897919	494.505
0.923879	541.209
0.944714	604.396
0.962965	667.582
0.991574	739.011
