Adsorption isotherm of Nitrogen on CuBTC
DOI: 10.1016/j.ijhydene.2012.01.166
Adsorbate Nitrogen: InChIKey IJGRMHOSHXDMSA-UHFFFAOYSA-N
Temperature: 77 K
Tabular data in the source: 0
pressure (bar)	uptake (cm3(STP)/g)
0.00925926	181.935
0.0123457	193.548
0.037037	197.419
0.058642	199.355
0.0833333	201.29
0.0925926	203.226
0.12963	203.226
0.148148	203.226
0.191358	207.097
0.225309	205.161
0.262346	205.161
0.296296	205.161
0.32716	205.161
0.385802	207.097
0.42284	207.097
0.469136	207.097
0.506173	207.097
0.555556	207.097
0.608025	209.032
0.648148	209.032
0.700617	209.032
0.746914	209.032
0.802469	209.032
0.851852	210.968
0.907407	210.968
0.953704	210.968
0.975309	212.903
0.993827	212.903
