Adsorption isotherm of Hydrogen on Zn(bpe)(tftpa)*cyclohexanone
DOI: 10.1021/Ic101153c
Adsorbate Hydrogen: InChIKey UFHFLCQGNIYNRP-UHFFFAOYSA-N
Temperature: 87 K
Tabular data in the source: 0
pressure (bar)	uptake (wt%)
0.00515504	0.00965554
0.0308976	0.093748
0.0623608	0.162395
0.0966842	0.222461
0.202515	0.361471
0.304055	0.462725
0.401305	0.527939
0.508565	0.591438
0.65301	0.660085
0.797454	0.71157
0.903285	0.745893
0.9562	0.761339
