Adsorption isotherm of Hydrogen on Zn(bpe)(tftpa)*cyclohexanone
DOI: 10.1021/Ic101153c
Adsorbate Hydrogen: InChIKey UFHFLCQGNIYNRP-UHFFFAOYSA-N
Temperature: 77 K
Tabular data in the source: 0
pressure (bar)	uptake (wt%)
0.00229475	0.0353981
0.0108756	0.102329
0.0223168	0.164111
0.0394785	0.253352
0.0780923	0.380349
0.15103	0.527939
0.25257	0.654936
0.35268	0.749326
0.505705	0.843715
0.597234	0.893484
0.701635	0.944969
0.800315	0.987873
0.901855	1.02563
0.95191	1.04451
