Adsorption isotherm of Nitrogen on 35AS
DOI: 10.1016/j.molcata.2015.01.018
Article source: Figure 2b
Adsorbate Nitrogen: InChIKey IJGRMHOSHXDMSA-UHFFFAOYSA-N
Kind: experiment
Temperature: 77 K
Tabular data in the source: 0
pressure (bar)	uptake (cm3(STP)/g)
0.027459	54.6559
0.07414	66.8016
0.093362	72.8745
0.126313	76.9231
0.167502	80.9717
0.219675	89.0688
0.271848	97.166
0.299307	99.1903
0.326766	101.215
0.351479	105.263
0.376193	107.287
0.403652	109.312
0.428366	113.36
0.458572	123.482
0.486031	117.409
0.488777	163.968
0.505252	174.089
0.507998	125.506
0.521727	182.186
0.529965	127.53
0.535457	182.186
0.560171	133.603
0.582138	135.628
0.604106	151.822
0.612343	194.332
0.628819	161.943
0.637057	208.502
0.656278	220.648
0.659025	165.992
0.683738	174.089
0.68923	246.964
0.705705	253.036
0.730418	253.036
0.738656	242.915
0.74964	253.036
0.766116	246.964
0.774354	253.036
0.790829	253.036
0.799067	259.109
0.818289	251.012
0.834764	255.061
0.843002	253.036
0.853985	259.109
0.86497	255.061
0.8787	265.182
0.889683	261.134
0.906159	267.206
0.917142	261.134
0.933618	267.206
0.947347	265.182
0.96657	277.328
0.985791	287.449
0.991283	279.352
1.00227	303.644
