Adsorption isotherm of Nitrogen on MIL-101
DOI: 10.1016/j.molcata.2015.01.018
Article source: Figure 2a
Adsorbate Nitrogen: InChIKey IJGRMHOSHXDMSA-UHFFFAOYSA-N
Kind: experiment
Temperature: 77 K
Tabular data in the source: 0
pressure (bar)	uptake (cm3(STP)/g)
0.027609	371.369
0.049696	416.183
0.074544	454.357
0.096631	482.573
0.102153	499.17
0.127002	530.705
0.149089	545.643
0.176698	560.581
0.201546	575.519
0.223632	605.394
0.229155	621.992
0.248481	630.29
0.251241	625.311
0.273329	633.61
0.287134	626.971
0.298177	635.27
0.311982	630.29
0.320264	636.929
0.33683	631.95
0.347873	638.589
0.358916	635.27
0.372721	641.909
0.389287	635.27
0.39757	641.909
0.414135	638.589
0.422418	643.568
0.438983	640.249
0.447266	645.228
0.466591	640.249
0.474875	646.888
0.488679	640.249
0.502484	646.888
0.513527	643.568
0.530093	648.548
0.546659	641.909
0.554941	648.548
0.568745	643.568
0.577028	651.867
0.588071	645.228
0.601876	650.207
0.618441	648.548
0.626725	653.527
0.643289	648.548
0.654334	651.867
0.670898	650.207
0.679181	651.867
0.701268	655.187
0.726116	656.846
0.753725	658.506
0.775813	658.506
0.803422	658.506
0.83103	658.506
0.853118	660.166
0.889009	658.506
0.911097	663.485
0.941466	668.465
0.963554	665.145
0.988402	686.722
0.991163	676.763
1.00773	709.959
