Adsorption isotherm of Nitrogen on Pt/MIL-101
DOI: 10.1016/j.molcata.2015.01.018
Article source: Figure 2a
Adsorbate Nitrogen: InChIKey IJGRMHOSHXDMSA-UHFFFAOYSA-N
Kind: experiment
Temperature: 77 K
Tabular data in the source: 0
pressure (bar)	uptake (cm3(STP)/g)
0.024848	333.195
0.052457	374.689
0.071783	407.884
0.099392	439.419
0.127002	489.212
0.157371	527.386
0.179459	537.344
0.201546	548.963
0.226393	578.838
0.231916	592.116
0.251241	613.693
0.259525	612.033
0.284373	613.693
0.309221	620.332
0.364439	621.992
0.414135	626.971
0.463831	630.29
0.510766	633.61
0.563223	633.61
0.61292	638.589
0.665377	640.249
0.715073	640.249
0.76753	643.568
0.814466	646.888
0.850357	646.888
0.886248	646.888
0.916618	651.867
0.941466	653.527
0.969075	655.187
0.991163	661.826
1.01049	683.402
