Adsorption isotherm of Nitrogen on Pt/35AS
DOI: 10.1016/j.molcata.2015.01.018
Article source: Figure 2b
Adsorbate Nitrogen: InChIKey IJGRMHOSHXDMSA-UHFFFAOYSA-N
Kind: experiment
Temperature: 77 K
Tabular data in the source: 0
pressure (bar)	uptake (cm3(STP)/g)
0.027161	54.3814
0.054587	60.3753
0.076522	66.38
0.101213	70.3631
0.125893	76.3624
0.153342	78.3239
0.178034	82.307
0.200001	82.2633
0.232931	86.2301
0.257612	92.2293
0.282325	92.1802
0.307017	96.1633
0.328962	100.152
0.359145	104.124
0.381114	104.08
0.411308	106.036
0.430463	118.095
0.460636	124.083
0.460714	109.97
0.485029	182.503
0.488128	117.98
0.509697	190.518
0.510074	121.969
0.529263	127.979
0.534423	188.453
0.550843	198.501
0.56218	133.962
0.581026	202.473
0.581358	141.988
0.602961	208.478
0.606017	152.02
0.630421	208.423
0.630675	162.052
0.652532	182.169
0.655089	216.438
0.679815	214.373
0.690832	208.303
0.709998	218.345
0.7347	220.312
0.764862	228.317
0.76494	214.204
0.784117	222.23
0.808797	228.229
0.814223	240.315
0.838948	238.25
0.86912	244.238
0.885551	252.27
0.893745	260.318
0.907475	260.291
0.918359	278.415
0.937559	282.409
0.940216	298.532
0.959394	306.559
0.964731	334.774
0.986565	358.924
0.989057	405.29
1.00221	510.103
