Adsorption isotherm of N-Hexane on ZIF-8
DOI: 10.1016/j.micromeso.2014.04.009
Adsorbate N-Hexane: InChIKey VLKZOEOYAKHREP-UHFFFAOYSA-N
Temperature: 373 K
Tabular data in the source: 0
pressure (bar)	uptake (g Adsorbate / 100g Adsorbent)
0.00501901	3.70079
0.0175665	9.37008
0.0360456	13.7008
0.0634221	17.2441
0.0898859	18.7402
