Adsorption isotherm of N-Hexane on ZIF-8
DOI: 10.1016/j.micromeso.2014.04.009
Adsorbate N-Hexane: InChIKey VLKZOEOYAKHREP-UHFFFAOYSA-N
Temperature: 423 K
Tabular data in the source: 0
pressure (bar)	uptake (g Adsorbate / 100g Adsorbent)
0.00479087	1.02362
0.0189354	2.99213
0.0385551	4.96063
0.0673004	8.18898
0.0962738	10.4724
