Adsorption isotherm of N-Hexane on ZIF-8
DOI: 10.1016/j.micromeso.2014.04.009
Adsorbate N-Hexane: InChIKey VLKZOEOYAKHREP-UHFFFAOYSA-N
Temperature: 313 K
Tabular data in the source: 0
pressure (bar)	uptake (g Adsorbate / 100g Adsorbent)
0.00547529	14.252
0.0205323	21.1024
0.0406084	23.8583
0.070038	24.8031
0.101293	25.4331
