Adsorption isotherm of Carbon Dioxide on MCM-41
DOI: 10.1016/j.ces.2016.07.033
Article source: Figure 8-CO2_Experimental
Adsorbate Carbon Dioxide: InChIKey CURLTUGMZLYLDI-UHFFFAOYSA-N
Kind: experiment
Temperature: 298 K
Tabular data in the source: 0
pressure (bar)	uptake (mmol/g)
0.04136	0.04106
0.05332	0.04914
0.10211	0.09683
0.11957	0.10852
0.18032	0.16112
0.26919	0.22726
0.36	0.29802
0.36872	0.29248
0.44887	0.35585
0.4563	0.35585
0.54097	0.41923
0.55713	0.4183
0.63275	0.4786
0.64471	0.4842
0.66895	0.49029
0.72518	0.53367
0.73326	0.52844
0.76428	0.54966
0.78561	0.56566
0.81437	0.58904
0.85477	0.60688
0.87481	0.61457
0.90195	0.64226
0.9737	0.67179
