Adsorption isotherm of Carbon Dioxide, Ethane on MCM-41
DOI: 10.1016/j.ces.2016.07.033
Article source: Figure 12- Experiment
Adsorbate Carbon Dioxide: InChIKey CURLTUGMZLYLDI-UHFFFAOYSA-N
Adsorbate Ethane: InChIKey OTMSDBZUPAUEDD-UHFFFAOYSA-N
Kind: experiment
Temperature: 264 K
Tabular data in the source: 0
pressure (bar)	Carbon Dioxide fraction	Carbon Dioxide uptake (mmol/g)	Ethane fraction	Ethane uptake (mmol/g)	total uptake (mmol/g)
1.47975	0.1245	0.2147	0.8755	1.557	
14.8958	0.1245	1.0437	0.8755	8.2502	
17.6308	0.1245	1.2647	0.8755	8.37	
