Adsorption isotherm of Carbon Dioxide on MCM-41
DOI: 10.1016/j.ces.2016.07.033
Article source: Figure 8-CH4_Experiment
Adsorbate Carbon Dioxide: InChIKey CURLTUGMZLYLDI-UHFFFAOYSA-N
Kind: experiment
Temperature: 298 K
Tabular data in the source: 0
pressure (bar)	uptake (mmol/g)
0.08078	0.01143
0.11957	0.01842
0.22554	0.035
0.2457	0.03907
0.36114	0.05343
0.38231	0.06041
0.49939	0.07437
0.51913	0.07787
0.63295	0.09145
0.65127	0.09488
0.66613	0.09978
0.68446	0.10231
0.78219	0.11414
0.78789	0.11537
0.80845	0.11879
0.82942	0.11957
0.93163	0.13528
0.95138	0.13853
0.96828	0.13858
1.08026	0.15216
