Adsorption isotherm of Ethane on MCM-41
DOI: 10.1016/j.ces.2016.07.033
Article source: Figure 9-C2H6_Experimental
Adsorbate Ethane: InChIKey OTMSDBZUPAUEDD-UHFFFAOYSA-N
Kind: experiment
Temperature: 264 K
Tabular data in the source: 0
pressure (bar)	uptake (mmol/g)
0.0295	0.199
0.2768	0.4941
0.9919	1.3681
3.0575	2.8715
6.4534	4.7538
8.6059	6.1738
10.1365	7.7216
12.697	8.5072
17.317	9.0152
