Adsorption isotherm of Carbon Dioxide on Zeolite 13X
DOI: 10.1016/j.ces.2016.07.033
Article source: Figure 10- CO2_Experimental
Adsorbate Carbon Dioxide: InChIKey CURLTUGMZLYLDI-UHFFFAOYSA-N
Kind: experiment
Temperature: 318 K
Tabular data in the source: 0
pressure (bar)	uptake (mmol/g)
0.2317	3.75475
0.3473	4.09348
0.6495	4.58524
1.0184	4.87308
1.5118	5.13182
2.0185	5.2631
2.8007	5.44546
3.8141	5.6097
5.0364	5.75579
6.9876	5.91671
10.0055	6.10348
