Adsorption isotherm of Nitrogen on Zeolite 13X
DOI: 10.1016/j.ces.2016.07.033
Article source: Figure 10- N2_Experiment
Adsorbate Nitrogen: InChIKey IJGRMHOSHXDMSA-UHFFFAOYSA-N
Kind: experiment
Temperature: 318 K
Tabular data in the source: 0
pressure (bar)	uptake (mmol/g)
0.5868	0.1409
1.0365	0.24928
1.4456	0.3461
2.456	0.54841
3.9936	0.83023
5.9862	1.1381
9.8956	1.55162
