Adsorption isotherm of Carbon Dioxide on MCM-41
DOI: 10.1016/j.ces.2016.07.033
Article source: Figure 9-CO2_Experiment
Adsorbate Carbon Dioxide: InChIKey CURLTUGMZLYLDI-UHFFFAOYSA-N
Kind: experiment
Temperature: 264 K
Tabular data in the source: 0
pressure (bar)	uptake (mmol/g)
0.1028	0.3414
0.4483	1.0571
1.677	2.4624
4.4516	4.5945
8.6856	6.8147
12.5547	8.8043
14.5793	10.1935
16.3495	12.8127
18.9678	13.8193
