Adsorption isotherm of Carbon Dioxide, Ethane on MCM-41
DOI: 10.1016/j.ces.2016.07.033
Article source: Figure 13- Experimental
Adsorbate Carbon Dioxide: InChIKey CURLTUGMZLYLDI-UHFFFAOYSA-N
Adsorbate Ethane: InChIKey OTMSDBZUPAUEDD-UHFFFAOYSA-N
Kind: experiment
Temperature: 264 K
Tabular data in the source: 0
pressure (bar)	Carbon Dioxide fraction	Carbon Dioxide uptake (mmol/g)	Ethane fraction	Ethane uptake (mmol/g)	total uptake (mmol/g)
1.5145	0.897	2.05098	0.10273	0.20435	
1.5145	0.58632	1.38208	0.4138	0.73383	
1.5145	0.47131	1.10082	0.5284	0.95058	
1.5145	0.12339	0.28711	0.87632	1.54504	
