Adsorption isotherm of Methanol on Carbon
DOI: 10.1016/j.colsurfa.2003.10.025
Adsorbate Methanol: InChIKey OKKJLVBELUTLKV-UHFFFAOYSA-N
Temperature: 298 K
Tabular data in the source: 0
pressure (bar)	uptake (mmol/g)
0.000708	0.760838
0.00255396	1.69887
0.00454156	2.48478
0.00681311	3.87915
0.00951058	5.0707
0.0129179	6.46506
0.0163252	7.5045
0.0191647	8.31577
0.0220041	9.02563
0.0248435	9.68478
0.0289607	10.3946
0.0357754	11.3073
0.0458554	12.1946
0.052528	12.651
0.0592007	12.9806
0.0658734	13.2087
0.07283	13.4876
0.0796447	13.6904
0.0892987	13.8425
