Adsorption isotherm of Methanol on Carbon
DOI: 10.1016/j.colsurfa.2003.10.025
Adsorbate Methanol: InChIKey OKKJLVBELUTLKV-UHFFFAOYSA-N
Temperature: 298 K
Tabular data in the source: 0
pressure (bar)	uptake (mmol/g)
0.0038317	2.12985
0.00525142	3.09323
0.00709706	4.00591
0.00965255	5.22281
0.0146216	6.97211
0.0184548	7.98619
0.022288	8.64534
0.0291027	9.48196
0.0353494	10.0651
0.0420221	10.4453
0.0489787	10.8003
0.0560773	11.0284
0.062608	11.2313
0.0692807	11.358
0.0759534	11.4594
0.083052	11.6115
0.0894407	11.6115
