Adsorption isotherm of Methanol on Carbon
DOI: 10.1016/j.colsurfa.2003.10.025
Adsorbate Methanol: InChIKey OKKJLVBELUTLKV-UHFFFAOYSA-N
Temperature: 298 K
Tabular data in the source: 0
pressure (bar)	uptake (mmol/g)
0.0018441	1.44534
0.0038317	2.58619
0.00510945	3.60027
0.00695508	4.41154
0.00965255	5.37492
0.0134858	6.43971
0.017603	7.09887
0.0217202	7.5552
0.0255534	7.83408
0.032368	8.21436
0.0387568	8.39182
0.0455714	8.59464
0.0523861	8.6707
0.0596266	8.79746
0.0661573	8.94957
0.073114	8.97492
0.0796447	9.05098
0.0901506	9.10168
