Adsorption isotherm of Methanol on Carbon
DOI: 10.1016/j.colsurfa.2003.10.025
Adsorbate Methanol: InChIKey OKKJLVBELUTLKV-UHFFFAOYSA-N
Temperature: 298 K
Tabular data in the source: 0
pressure (bar)	uptake (mmol/g)
0.000282	0.0763308
0.0018441	0.760838
0.00468353	2.1552
0.00681311	3.37211
0.0102204	5.0707
0.0137697	6.59182
0.017461	8.1383
0.0217202	9.55802
0.0247016	10.4707
0.032368	12.1439
0.0391827	13.2341
0.0459973	14.0707
0.052528	14.7552
0.063034	15.4651
0.072972	15.9721
0.0797866	16.251
0.0898666	16.4538
