Adsorption isotherm of Neutral Red, Water on l-cysteine-reduced graphene oxide/poly(vinyl alcohol) ultralight aerogel
DOI: 10.1007/s10853-017-0818-y
Article source: Figure 5
Adsorbate Neutral Red: InChIKey PGSADBUBUOPOJS-UHFFFAOYSA-N
Adsorbate Water: InChIKey XLYOFNOQVPJJNP-UHFFFAOYSA-N
Kind: experiment
Temperature: 303 K
Tabular data in the source: 0
pressure (bar)	Neutral Red fraction	Neutral Red uptake (mg/g)	Water fraction	Water uptake (mg/g)	total uptake (mg/g)
1.01325	3.9	200.12			
1.01325	8.98	285.55			
1.01325	43.94	371.45			
1.01325	90.91	389.24			
1.01325	150.38	397.9			
1.01325	170.85	394.86			
1.01325	264.24	398.7			
1.01325	269.25	398.55			
1.01325	378.47	401.06			
1.01325	382.87	400.03			
