Adsorption isotherm of Indigo carmine, Water on l-cysteine-reduced graphene oxide/poly(vinyl alcohol) ultralight aerogel
DOI: 10.1007/s10853-017-0818-y
Article source: Figure 5
Adsorbate Indigo carmine: InChIKey JFVXEJADITYJHK-UHFFFAOYSA-L
Adsorbate Water: InChIKey XLYOFNOQVPJJNP-UHFFFAOYSA-N
Kind: experiment
Temperature: 303 K
Tabular data in the source: 0
pressure (bar)	Indigo carmine fraction	Indigo carmine uptake (mg/g)	Water fraction	Water uptake (mg/g)	total uptake (mg/g)
1.01325	7.54	70.21			
1.01325	13.48	93.06			
1.01325	46.01	162.17			
1.01325	98.64	216.6			
1.01325	133.21	229.98			
1.01325	233.78	253.61			
1.01325	312.6	263.34			
1.01325	416.38	263.93			
