Adsorption isotherm of Carbon Dioxide on Cd-TMBP-Triazole-diyl-TAA
DOI: 10.1021/acs.inorgchem.5b00722
Article source: Figure S1b
Adsorbate Carbon Dioxide: InChIKey CURLTUGMZLYLDI-UHFFFAOYSA-N
Kind: experiment
Temperature: 323 K
Tabular data in the source: 0
pressure (bar)	uptake (cm3(STP)/g)
0.28957	13.2987
0.394868	54.4982
0.491286	58.4881
1.64417	89.0912
1.82623	51.8879
3.08251	115.717
3.16846	75.8528
4.41333	91.841
4.42284	131.708
5.85801	145.045
5.94427	106.51
7.18692	113.196
7.19675	154.392
8.53486	161.081
8.62177	125.203
9.77783	169.096
9.86441	131.889
11.0205	175.781
11.2025	138.578
12.4537	181.145
12.541	146.596
13.7918	187.834
13.9748	154.617
15.0342	193.191
15.4087	162.638
16.3723	199.879
16.652	171.982
17.7104	206.568
17.9908	181.329
18.9527	211.925
19.4243	188.021
20.3863	218.617
20.6676	197.364
21.6293	226.632
22.1028	210.701
22.9677	234.65
23.4422	222.706
24.6864	236.036
24.6896	249.325
25.8374	258.666
26.1213	248.044
27.0804	266.68
27.4606	260.049
28.4194	277.356
28.8961	274.714
29.663	288.029
30.2377	296.021
31.0982	301.365
31.6738	313.345
32.3411	309.38
32.9196	333.32
33.6821	328.029
34.2581	341.337
34.9273	345.346
35.692	349.359
36.2683	363.996
37.032	364.021
37.5134	381.313
38.2772	381.338
38.7583	397.301
39.811	407.967
