Adsorption isotherm of Carbon Dioxide on Cd-TMBP-Triazole-diyl-TAA
DOI: 10.1021/acs.inorgchem.5b00722
Article source: Figure 3c
Adsorbate Carbon Dioxide: InChIKey CURLTUGMZLYLDI-UHFFFAOYSA-N
Kind: experiment
Temperature: 298 K
Tabular data in the source: 0
pressure (bar)	uptake (cm3(STP)/g)
0.029491	0.342466
0.048257	0.342466
0.075067	0.684932
0.099196	1.0274
0.123324	1.0274
0.147453	1.36986
0.171582	1.71233
0.198391	2.05479
0.22252	2.39726
0.246649	2.39726
0.273458	2.73973
0.300268	3.08219
0.324397	3.08219
0.348525	3.08219
0.375335	3.42466
0.396783	3.76712
0.423592	4.10959
0.447721	4.45205
0.474531	4.45205
0.49866	4.79452
0.522788	5.13699
0.549598	5.47945
0.573727	5.47945
0.597855	5.82192
0.624665	5.82192
0.648794	6.16438
0.672922	6.16438
0.697051	6.50685
0.723861	6.84932
0.747989	6.84932
0.772118	7.19178
0.798928	7.53425
0.823056	7.87671
0.847185	7.87671
0.873995	8.21918
0.898123	8.21918
0.922252	8.56164
0.949062	8.90411
0.97319	8.90411
0.991957	9.24658
