Adsorption isotherm of Carbon Dioxide on Cd-TMBP-Triazole-diyl-TAA
DOI: 10.1021/acs.inorgchem.5b00722
Article source: Figure S1b
Adsorbate Carbon Dioxide: InChIKey CURLTUGMZLYLDI-UHFFFAOYSA-N
Kind: experiment
Temperature: 298 K
Tabular data in the source: 0
pressure (bar)	uptake (cm3(STP)/g)
0.500987	34.5515
0.502191	27.907
0.788194	49.1694
2.08508	90.3654
2.23193	79.7342
3.60273	112.957
3.67736	100.997
5.04935	127.575
5.12422	114.286
6.56917	138.206
6.64404	124.917
8.01627	150.166
8.23607	136.877
9.60927	156.811
9.6839	144.85
10.9839	168.771
11.2032	158.14
12.5757	182.06
12.7958	167.442
13.9504	194.02
14.3146	183.389
15.6146	207.309
15.8335	199.336
16.989	220.598
17.425	213.953
18.5806	235.216
18.9439	229.9
20.0262	255.15
20.2448	248.505
21.4726	271.096
21.9806	267.11
22.8456	292.359
23.3531	291.03
24.869	322.924
25.0144	320.266
25.9524	342.857
26.6038	346.844
27.6133	374.751
28.1191	382.724
28.9126	402.658
29.7068	418.605
