Adsorption isotherm of Carbon Dioxide on Cd-TMBP-Triazole-diyl-TAA
DOI: 10.1021/acs.inorgchem.5b00722
Article source: Figure 3c
Adsorbate Carbon Dioxide: InChIKey CURLTUGMZLYLDI-UHFFFAOYSA-N
Kind: experiment
Temperature: 298 K
Tabular data in the source: 0
pressure (bar)	uptake (cm3(STP)/g)
0.02681	2.05479
0.053619	5.13699
0.069705	8.56164
0.075067	7.19178
0.096515	10.9589
0.099196	9.24658
0.123324	11.9863
0.147453	13.6986
0.150134	16.4384
0.174263	18.8356
0.176944	16.4384
0.19571	20.8904
0.198391	18.4932
0.22252	23.6301
0.225201	20.8904
0.24933	26.0274
0.270777	28.7671
0.276139	25.6849
0.297587	30.8219
0.300268	28.0822
0.324397	33.2192
0.327078	30.4795
0.345845	35.6164
0.351206	32.8767
0.369973	38.0137
0.372654	34.9315
0.399464	40.0685
0.402145	37.6712
0.423592	42.4658
0.426273	40.0685
0.447721	44.863
0.450402	42.1233
0.47185	44.5205
0.474531	46.9178
0.493298	49.3151
0.50134	46.9178
0.522788	51.3699
0.525469	48.2877
0.549598	51.0274
0.573727	55.137
0.600536	54.7945
0.624665	56.5068
0.648794	58.5616
0.672922	62.3288
0.675603	60.274
0.697051	61.9863
0.699732	64.0411
0.723861	65.411
0.747989	65.0685
0.772118	66.4384
0.798928	69.5205
0.823056	70.8904
0.847185	72.6027
0.849866	71.2329
0.871314	73.6301
0.873995	72.6027
0.898123	73.9726
0.922252	76.0274
0.946381	77.0548
0.97319	77.7397
0.994638	78.7671
