Adsorption isotherm of Carbon Dioxide on Cd-TMBP-Triazole-diyl-TAA
DOI: 10.1021/acs.inorgchem.5b00722
Article source: Figure 3d
Adsorbate Carbon Dioxide: InChIKey CURLTUGMZLYLDI-UHFFFAOYSA-N
Kind: experiment
Temperature: 273 K
Tabular data in the source: 0
pressure (bar)	uptake (cm3(STP)/g)
0.475845	67.7966
0.476661	57.6271
0.554156	91.5254
0.791806	128.814
1.99148	172.881
2.15408	145.763
3.67461	189.831
3.67652	166.102
5.11873	186.441
5.19732	206.78
6.47911	227.119
6.72165	203.39
8.08257	237.288
8.16442	216.949
9.52506	254.237
9.76733	233.898
11.1277	274.576
11.4502	254.237
12.5702	291.525
12.8122	274.576
14.0119	318.644
14.2539	301.695
15.4535	345.763
15.8554	335.593
17.1348	386.441
17.3765	372.881
18.5756	423.729
19.0577	413.559
20.016	467.797
20.3374	461.017
21.5354	525.424
21.937	518.644
22.8944	583.051
23.4559	583.051
24.413	650.847
24.9737	661.017
25.93	738.983
26.4902	755.932
27.4465	833.898
28.0055	864.407
28.8819	938.983
29.5193	993.22
