Adsorption isotherm of Hydrogen on Cd-TMBP-Triazole-diyl-TAA
DOI: 10.1021/acs.inorgchem.5b00722
Article source: Figure 3a
Adsorbate Hydrogen: InChIKey UFHFLCQGNIYNRP-UHFFFAOYSA-N
Kind: experiment
Temperature: 77 K
Tabular data in the source: 0
pressure (bar)	uptake (cm3(STP)/g)
0.005362	0.005362
0.010724	7.05882
0.018767	77.6471
0.02681	12.3529
0.048257	90
0.050938	13.5294
0.075067	28.2353
0.077748	97.6471
0.099196	49.4118
0.123324	65.2941
0.126005	100
0.150134	73.5294
0.174263	78.8235
0.201072	84.1176
0.22252	103.529
0.225201	85.8824
0.24933	88.8235
0.273458	93.5294
0.297587	93.5294
0.300268	105.294
0.324397	95.2941
0.348525	96.4706
0.372654	106.471
0.375335	97.0588
0.399464	98.2353
0.423592	108.235
0.426273	98.8235
0.447721	108.235
0.450402	99.4118
0.474531	108.824
0.50134	100.588
0.522788	108.824
0.546917	109.412
0.552279	101.765
0.573727	101.765
0.597855	109.412
0.600536	102.941
0.624665	110.588
0.627346	103.529
0.648794	110
0.672922	110.588
0.675603	104.118
0.699732	104.706
0.72118	110.588
0.726542	105.882
0.747989	110.588
0.75067	105.882
0.774799	110
0.77748	107.059
0.796247	110
0.801609	107.059
0.823056	110.588
0.828418	107.647
0.849866	107.647
0.876676	107.647
0.898123	110
0.903485	108.235
0.924933	108.235
0.949062	109.412
0.975871	108.235
0.994638	108.824
