Adsorption isotherm of Carbon Dioxide on Cd-TMBP-Triazole-diyl-TAA
DOI: 10.1021/acs.inorgchem.5b00722
Article source: Figure 3c
Adsorbate Carbon Dioxide: InChIKey CURLTUGMZLYLDI-UHFFFAOYSA-N
Kind: experiment
Temperature: 273 K
Tabular data in the source: 0
pressure (bar)	uptake (cm3(STP)/g)
0.008043	0.684932
0.010724	3.08219
0.018767	5.13699
0.024129	3.76712
0.048257	9.58904
0.050938	6.84932
0.072386	13.6986
0.096515	15.411
0.101877	18.1507
0.123324	21.9178
0.126005	19.863
0.147453	24.3151
0.150134	26.7123
0.174263	28.7671
0.198391	32.8767
0.201072	36.3014
0.22252	36.9863
0.225201	40.411
0.24933	41.4384
0.273458	45.5479
0.294906	48.9726
0.300268	52.0548
0.324397	52.7397
0.348525	58.9041
0.351206	55.8219
0.375335	59.589
0.396783	62.3288
0.399464	64.726
0.420912	67.4658
0.426273	65.411
0.447721	69.5205
0.450402	67.8082
0.474531	70.2055
0.495979	73.9726
0.50134	72.6027
0.522788	74.3151
0.525469	76.7123
0.552279	76.3699
0.571046	77.7397
0.573727	80.137
0.597855	80.137
0.624665	81.1644
0.648794	84.589
0.672922	85.9589
0.675603	84.589
0.697051	85.6164
0.699732	87.3288
0.723861	86.9863
0.747989	89.726
0.75067	88.0137
0.774799	90.7534
0.796247	91.4384
0.798928	90.7534
0.823056	93.1507
0.847185	92.8082
0.849866	93.8356
0.871314	94.5205
0.873995	93.4932
0.895442	95.5479
0.898123	94.863
0.922252	96.2329
0.924933	95.8904
0.946381	96.9178
0.970509	97.6027
0.991957	97.9452
