Adsorption isotherm of Carbon Dioxide on Cd-TMBP-Triazole-diyl-TAA
DOI: 10.1021/acs.inorgchem.5b00722
Article source: Figure 3a
Adsorbate Carbon Dioxide: InChIKey CURLTUGMZLYLDI-UHFFFAOYSA-N
Kind: experiment
Temperature: 195 K
Tabular data in the source: 0
pressure (bar)	uptake (cm3(STP)/g)
0	0.588235
0.005362	4.11765
0.008043	7.64706
0.010724	64.1176
0.018767	124.118
0.021448	131.765
0.024129	99.4118
0.048257	137.059
0.050938	102.353
0.075067	138.824
0.099196	126.471
0.101877	140.588
0.123324	130.588
0.126005	141.765
0.147453	132.941
0.150134	142.941
0.176944	134.706
0.201072	135.882
0.22252	137.647
0.227882	145.882
0.24933	138.824
0.273458	140
0.276139	148.235
0.297587	148.824
0.300268	141.176
0.324397	142.941
0.348525	150.588
0.353887	144.118
0.372654	151.176
0.375335	144.706
0.399464	145.294
0.423592	152.941
0.426273	146.471
0.447721	147.059
0.450402	153.529
0.474531	154.118
0.495979	155.294
0.49866	149.412
0.525469	154.706
0.52815	148.824
0.549598	155.882
0.552279	150
0.573727	156.471
0.576408	151.176
0.597855	157.059
0.600536	152.353
0.621984	157.647
0.624665	152.941
0.648794	158.235
0.651475	153.529
0.670241	158.824
0.678284	154.118
0.699732	158.824
0.702413	154.706
0.723861	159.412
0.726542	155.882
0.747989	160.588
0.75067	156.471
0.769437	160.588
0.774799	157.059
0.796247	160.588
0.798928	157.059
0.823056	161.176
0.828418	158.824
0.847185	161.176
0.849866	158.824
0.873995	161.765
0.879357	158.824
0.898123	160
0.900804	162.941
0.922252	163.529
0.927614	160
0.949062	161.176
0.97319	163.529
0.978552	161.176
0.994638	161.765
