Adsorption isotherm of Nitrogen on Cd-TMBP-Triazole-diyl-TAA
DOI: 10.1021/acs.inorgchem.5b00722
Article source: Figure 3a
Adsorbate Nitrogen: InChIKey IJGRMHOSHXDMSA-UHFFFAOYSA-N
Kind: experiment
Temperature: 77 K
Tabular data in the source: 0
pressure (bar)	uptake (cm3(STP)/g)
0	0.588235
0.002681	4.11765
0.005362	14.1176
0.008043	18.2353
0.010724	24.7059
0.016086	51.1765
0.018767	61.7647
0.024129	70
0.048257	95.2941
0.050938	74.1176
0.072386	90.5882
0.075067	102.353
0.099196	108.235
0.101877	98.8235
0.123324	111.765
0.147453	106.471
0.150134	114.706
0.174263	117.059
0.176944	108.824
0.201072	118.235
0.203753	111.176
0.22252	120
0.225201	112.941
0.24933	121.176
0.273458	122.353
0.297587	122.941
0.300268	117.059
0.324397	117.647
0.348525	118.824
0.375335	120
0.399464	125.882
0.423592	126.471
0.450402	126.471
0.474531	127.647
0.49866	128.824
0.525469	128.824
0.549598	129.412
0.573727	130
0.576408	125.882
0.595174	130.588
0.600536	127.059
0.624665	127.059
0.648794	130.588
0.651475	128.235
0.672922	131.176
0.675603	128.235
0.697051	132.353
0.699732	128.824
0.72118	131.765
0.723861	129.412
0.747989	131.765
0.75067	129.412
0.774799	132.353
0.798928	132.353
0.801609	131.176
0.823056	131.765
0.849866	132.941
0.873995	133.529
0.898123	134.118
0.900804	132.941
0.924933	133.529
0.949062	133.529
0.97319	135.294
0.975871	134.118
0.991957	134.706
