Adsorption isotherm of Nitrogen on SBA-15
DOI: 10.1021/La9026943
Adsorbate Nitrogen: InChIKey IJGRMHOSHXDMSA-UHFFFAOYSA-N
Temperature: 77 K
Tabular data in the source: 0
pressure (bar)	uptake (cm3(STP)/g)
0.00182509	8.42701
0.00182509	108.931
0.0935898	154.814
0.277119	200.696
0.473758	235.654
0.633254	274.982
0.766531	325.234
0.770901	333.973
0.790565	460.696
0.808044	762.208
0.827707	884.561
0.836447	926.074
0.847371	403.889
0.87359	738.175
0.882329	895.486
0.891069	934.814
0.967539	1052.8
0.985018	1048.43
0.995943	1127.08
