Adsorption isotherm of Nitrogen on SBA-15
DOI: 10.1021/La9026943
Adsorbate Nitrogen: InChIKey IJGRMHOSHXDMSA-UHFFFAOYSA-N
Temperature: 77 K
Tabular data in the source: 0
pressure (bar)	uptake (cm3(STP)/g)
0.00400996	8.48951
0.00400996	92.3887
0.0957747	130.842
0.633254	223.481
0.729388	263.683
0.786195	281.162
0.786195	321.363
0.808044	464.691
0.821153	627.246
0.829892	739.111
0.847371	335.347
0.875775	634.237
0.875775	786.305
0.891069	732.12
0.906363	768.826
0.952245	845.733
0.987203	857.969
0.989388	894.674
