Adsorption isotherm of Nitrogen on SBA-15-NH2
DOI: 10.1021/La9026943
Adsorbate Nitrogen: InChIKey IJGRMHOSHXDMSA-UHFFFAOYSA-N
Temperature: 77 K
Tabular data in the source: 0
pressure (bar)	uptake (cm3(STP)/g)
0.00400996	63.0489
0.111069	102.377
0.558968	178.847
0.711909	218.175
0.738128	229.099
0.770901	296.83
0.805859	585.234
0.816783	264.057
0.821153	622.377
0.838632	329.603
0.856111	655.15
0.867035	572.125
0.87359	622.377
0.895439	657.335
0.960985	720.696
0.978464	722.881
0.995943	799.351
