Adsorption isotherm of Nitrogen on SBA-15-NHCOC4H5
DOI: 10.1021/La9026943
Adsorbate Nitrogen: InChIKey IJGRMHOSHXDMSA-UHFFFAOYSA-N
Temperature: 77 K
Tabular data in the source: 0
pressure (bar)	uptake (cm3(STP)/g)
0.00619484	41.2001
0.0914049	67.4186
0.298968	87.0825
0.558968	111.116
0.670397	132.965
0.722834	132.965
0.744682	176.662
0.759976	200.696
0.790565	427.923
0.792749	152.629
0.816783	460.696
0.832077	205.066
0.856111	368.931
0.856111	489.099
0.862665	430.108
0.893254	486.914
0.9588	526.242
0.971909	519.688
0.991573	578.679
