Adsorption isotherm of Nitrogen on SBA-15-GA
DOI: 10.1021/La9026943
Adsorbate Nitrogen: InChIKey IJGRMHOSHXDMSA-UHFFFAOYSA-N
Temperature: 77 K
Tabular data in the source: 0
pressure (bar)	uptake (cm3(STP)/g)
0.0171192	14.9816
0.1788	28.0909
0.458464	36.8304
0.539304	45.5699
0.696615	73.9732
0.70317	45.5699
0.749052	146.074
0.78838	63.0489
0.792749	156.998
0.825523	137.335
0.901993	172.293
0.9588	163.553
1.00031	211.62
