Adsorption isotherm of Nitrogen on SBA-15-DGA
DOI: 10.1021/La9026943
Adsorbate Nitrogen: InChIKey IJGRMHOSHXDMSA-UHFFFAOYSA-N
Temperature: 77 K
Tabular data in the source: 0
pressure (bar)	uptake (cm3(STP)/g)
0.0149343	30.2757
0.18317	49.9396
0.475943	67.4186
0.607035	78.343
0.659472	80.5278
0.716279	111.116
0.755607	187.587
0.77527	259.688
0.794934	290.276
0.799304	108.931
0.823338	156.998
0.836447	305.57
0.849556	288.091
0.9588	331.788
0.980649	333.973
0.993758	379.856
