Adsorption isotherm of Nitrogen on SBA-15-NH2
DOI: 10.1021/La9026943
Adsorbate Nitrogen: InChIKey IJGRMHOSHXDMSA-UHFFFAOYSA-N
Temperature: 77 K
Tabular data in the source: 0
pressure (bar)	uptake (cm3(STP)/g)
0.0149343	52.187
0.0979595	80.1534
0.611405	127.347
0.725018	169.296
0.77527	221.733
0.77964	178.036
0.803674	408.758
0.823338	534.607
0.832077	209.498
0.840817	564.321
0.849556	254.943
0.882329	515.38
0.897623	569.565
0.9588	630.742
0.987203	635.985
0.993758	681.431
