Adsorption isotherm of Nitrogen on SBA-15-NHCOC4H5
DOI: 10.1021/La9026943
Adsorbate Nitrogen: InChIKey IJGRMHOSHXDMSA-UHFFFAOYSA-N
Temperature: 77 K
Tabular data in the source: 0
pressure (bar)	uptake (cm3(STP)/g)
0.00182509	4.05726
0.00837971	47.7547
0.0914049	67.4186
0.347035	89.2673
0.600481	115.486
0.6988	135.15
0.705355	132.965
0.757791	185.402
0.77527	303.385
0.781825	156.998
0.797119	403.889
0.823338	471.62
0.825523	189.772
0.836447	240.024
0.862665	425.738
0.87796	471.62
0.897623	506.578
0.939136	506.578
0.960985	532.797
0.980649	532.797
0.995943	585.234
