Adsorption isotherm of Nitrogen on SBA-15-NHCOC4H5
DOI: 10.1021/La9026943
Adsorbate Nitrogen: InChIKey IJGRMHOSHXDMSA-UHFFFAOYSA-N
Temperature: 77 K
Tabular data in the source: 0
pressure (bar)	uptake (cm3(STP)/g)
0.00619484	3.24581
0.021489	31.2122
0.307707	55.6828
0.521825	60.9265
0.61359	74.9097
0.727203	94.1366
0.762161	123.851
0.777455	85.3971
0.78838	206.002
0.808044	279.414
0.827707	113.363
0.840817	303.884
0.86485	270.674
0.884514	291.649
0.971909	338.842
0.976279	321.363
0.998128	382.54
