Adsorption isotherm of Nitrogen on SBA-15-PMMA-LMW
DOI: 10.1021/La9026943
Adsorbate Nitrogen: InChIKey IJGRMHOSHXDMSA-UHFFFAOYSA-N
Temperature: 77 K
Tabular data in the source: 0
pressure (bar)	uptake (cm3(STP)/g)
0.0258587	11.9853
0.187539	29.4643
0.462833	29.4643
0.469388	20.7248
0.591741	41.6996
0.672581	25.9685
0.679136	64.4223
0.738128	81.9013
0.746867	31.2122
0.797119	60.9265
0.801489	88.8929
0.827707	80.1534
0.943506	95.8845
0.947875	92.3887
0.980649	106.372
0.989388	141.33
