Adsorption isotherm of Nitrogen on SBA-15
DOI: 10.1021/La9026943
Adsorbate Nitrogen: InChIKey IJGRMHOSHXDMSA-UHFFFAOYSA-N
Temperature: 77 K
Tabular data in the source: 0
pressure (bar)	uptake (cm3(STP)/g)
0.00837971	10.6119
0.0105646	108.931
0.0608167	141.704
0.25964	194.141
0.558968	250.948
0.709724	303.385
0.746867	325.234
0.757791	358.007
0.792749	423.553
0.801489	585.234
0.810228	360.192
0.818968	825.57
0.825523	904.225
0.851741	419.183
0.87359	749.099
0.880144	897.671
0.880144	976.326
0.895439	941.368
0.945691	1037.5
0.974094	1035.32
0.993758	1124.9
