Adsorption isotherm of Nitrogen on SBA-15-NH2
DOI: 10.1021/La9026943
Adsorbate Nitrogen: InChIKey IJGRMHOSHXDMSA-UHFFFAOYSA-N
Temperature: 77 K
Tabular data in the source: 0
pressure (bar)	uptake (cm3(STP)/g)
0.00182509	56.4942
0.0979595	100.192
0.298968	132.965
0.620144	185.402
0.624514	191.956
0.733758	229.099
0.751237	229.099
0.777455	292.461
0.792749	456.326
0.808044	598.343
0.821153	624.561
0.825523	268.427
0.845186	327.419
0.867035	539.351
0.87359	600.528
0.886699	679.183
0.893254	652.965
0.960985	720.696
0.976279	718.511
0.993758	797.167
