Adsorption isotherm of Carbon Dioxide, Methane on Calgon F-400
DOI: 10.1016/j.fuel.2017.09.012
Article source: Figure 2
Adsorbate Carbon Dioxide: InChIKey CURLTUGMZLYLDI-UHFFFAOYSA-N
Adsorbate Methane: InChIKey VNWKTOKETHGBQD-UHFFFAOYSA-N
Kind: experiment
Isotherm type: excess
Temperature: 318 K
Tabular data in the source: 0
pressure (bar)	Carbon Dioxide fraction	Carbon Dioxide uptake (mmol/g)	Methane fraction	Methane uptake (mmol/g)	total uptake (mmol/g)
6.988	0.4	1.1929	0.6	1.4895	
14.455	0.4	1.7022	0.6	1.9349	
27.969	0.4	2.2783	0.6	2.2408	
41.995	0.4	2.6702	0.6	2.3073	
55.634	0.4	2.9588	0.6	2.2607	
69.402	0.4	3.1148	0.6	2.2075	
83.04	0.4	3.2634	0.6	2.0812	
96.936	0.4	3.3162	0.6	1.9416	
110.445	0.4	3.3984	0.6	1.7953	
124.212	0.4	3.3701	0.6	1.6889	
