Adsorption isotherm of Nitrogen, Methane on Calgon F-400
DOI: 10.1016/j.fuel.2017.09.012
Article source: Figure 4
Adsorbate Nitrogen: InChIKey IJGRMHOSHXDMSA-UHFFFAOYSA-N
Adsorbate Methane: InChIKey VNWKTOKETHGBQD-UHFFFAOYSA-N
Kind: experiment
Isotherm type: excess
Temperature: 318 K
Tabular data in the source: 0
pressure (bar)	Nitrogen fraction	Nitrogen uptake (mmol/g)	Methane fraction	Methane uptake (mmol/g)	total uptake (mmol/g)
7.292	0.6	0.7434	0.4	0.7543	
15.848	0.6	1.0592	0.4	1.1559	
28.594	0.6	1.2611	0.4	1.6178	
41.688	0.6	1.342	0.4	1.919	
55.218	0.6	1.4008	0.4	2.1098	
69.795	0.6	1.4082	0.4	2.2855	
82.976	0.6	1.3679	0.4	2.411	
96.243	0.6	1.3202	0.4	2.5315	
110.034	0.6	1.2836	0.4	2.5817	
124.61	0.6	1.2543	0.4	2.6068	
