Adsorption isotherm of Carbon Dioxide, Nitrogen on Calgon F-400
DOI: 10.1016/j.fuel.2017.09.012
Article source: Figure 3
Adsorbate Carbon Dioxide: InChIKey CURLTUGMZLYLDI-UHFFFAOYSA-N
Adsorbate Nitrogen: InChIKey IJGRMHOSHXDMSA-UHFFFAOYSA-N
Kind: experiment
Isotherm type: excess
Temperature: 318 K
Tabular data in the source: 0
pressure (bar)	Carbon Dioxide fraction	Carbon Dioxide uptake (mmol/g)	Nitrogen fraction	Nitrogen uptake (mmol/g)	total uptake (mmol/g)
8.889	0.419	0.9375	0.581	0.8131	
15.13	0.419	1.373	0.581	1.0381	
27.604	0.419	1.9487	0.581	1.2323	
42.475	0.419	2.5465	0.581	1.2765	
55.562	0.419	2.9376	0.581	1.2286	
69.003	0.419	3.2844	0.581	1.1092	
82.978	0.419	3.5352	0.581	0.9999	
96.864	0.419	3.7565	0.581	0.9043	
111.282	0.419	3.9852	0.581	0.7405	
125.435	0.419	4.1548	0.581	0.604	
