Adsorption isotherm of Carbon Dioxide on Calgon F-400
DOI: 10.1016/j.fuel.2017.09.012
Article source: Figure 1
Adsorbate Carbon Dioxide: InChIKey CURLTUGMZLYLDI-UHFFFAOYSA-N
Kind: experiment
Isotherm type: excess
Temperature: 318 K
Tabular data in the source: 0
pressure (bar)	uptake (mmol/g)
3.552	2.9675
5.734	3.8205
7.098	4.1486
11.734	5.0673
17.734	5.7628
19.234	5.894
24.961	6.2876
25.779	6.3401
32.87	6.6419
34.779	6.6944
42.961	6.9699
55.643	7.0747
59.188	6.8646
68.461	6.7464
69.961	6.8907
79.643	6.4312
82.915	6.3393
86.597	6.0111
91.915	5.4204
96.652	4.8238
100.467	4.1753
110.641	3.5006
128.903	2.713
133.437	2.6375
