Adsorption isotherm of Nitrogen, Methane on Calgon F-400
DOI: 10.1016/j.fuel.2017.09.012
Article source: Figure 4
Adsorbate Nitrogen: InChIKey IJGRMHOSHXDMSA-UHFFFAOYSA-N
Adsorbate Methane: InChIKey VNWKTOKETHGBQD-UHFFFAOYSA-N
Kind: experiment
Isotherm type: excess
Temperature: 318 K
Tabular data in the source: 0
pressure (bar)	Nitrogen fraction	Nitrogen uptake (mmol/g)	Methane fraction	Methane uptake (mmol/g)	total uptake (mmol/g)
6.599	0.183	0.2207	0.817	1.5977	
14.11	0.183	0.2936	0.817	2.3708	
27.643	0.183	0.3316	0.817	3.1941	
42.047	0.183	0.3083	0.817	3.6008	
56.538	0.183	0.2676	0.817	3.8769	
69.543	0.183	0.2589	0.817	4.0074	
83.771	0.183	0.2211	0.817	4.0978	
97.213	0.183	0.1979	0.817	4.1279	
110.654	0.183	0.1601	0.817	4.153	
124.706	0.183	0.131	0.817	4.148	
