Adsorption isotherm of Methane on Marcellus Shale
DOI: 10.1016/j.fuel.2017.09.012
Article source: Figure 8
Adsorbate Methane: InChIKey VNWKTOKETHGBQD-UHFFFAOYSA-N
Kind: experiment
Isotherm type: excess
Temperature: 313 K
Tabular data in the source: 0
pressure (bar)	uptake (mmol/g)
5.095	0.048984
10.117	0.06493
19.752	0.081152
30.472	0.093455
39.699	0.101842
60.051	0.113857
79.317	0.119997
99.94	0.121658
112.286	0.123606
