Adsorption isotherm of Ethane on Marcellus Shale
DOI: 10.1016/j.fuel.2017.09.012
Article source: Figure 8
Adsorbate Ethane: InChIKey OTMSDBZUPAUEDD-UHFFFAOYSA-N
Kind: experiment
Isotherm type: excess
Temperature: 313 K
Tabular data in the source: 0
pressure (bar)	uptake (mmol/g)
1.841	0.063538
4.694	0.090119
7.681	0.107186
11.753	0.122573
16.232	0.136001
20.168	0.144113
25.053	0.152503
29.938	0.157816
34.822	0.161169
