Adsorption isotherm of Methane on Nanchuan Shale
DOI: 10.1016/j.fuel.2017.09.012
Article source: Figure 6
Adsorbate Methane: InChIKey VNWKTOKETHGBQD-UHFFFAOYSA-N
Kind: experiment
Isotherm type: excess
Temperature: 318 K
Tabular data in the source: 0
pressure (bar)	uptake (mmol/g)
1.5111	0.013513
1.9483	0.018191
2.485	0.021992
3.0017	0.026962
4.0154	0.035441
4.9892	0.04509
6.0627	0.049768
7.0367	0.05737
7.971	0.061171
8.9852	0.060295
9.9988	0.069943
10.9932	0.068482
11.9473	0.073745
13.0606	0.0793
14.0149	0.081932
15.0487	0.086026
16.023	0.08778
17.037	0.089535
18.0309	0.09509
19.045	0.097137
