Adsorption isotherm of Methane on Calgon F-400
DOI: 10.1016/j.fuel.2017.09.012
Article source: Figure 1
Adsorbate Methane: InChIKey VNWKTOKETHGBQD-UHFFFAOYSA-N
Kind: experiment
Isotherm type: excess
Temperature: 318 K
Tabular data in the source: 0
pressure (bar)	uptake (mmol/g)
5.387	1.8928
8.742	2.4188
12.313	2.7677
15.668	3.0853
25.734	3.58
28.764	3.7779
35.042	3.8819
43.097	4.1481
48.552	4.1349
53.325	4.3317
61.915	4.2791
69.552	4.4364
76.233	4.3576
83.733	4.4362
90.415	4.3311
97.37	4.4098
103.506	4.2784
110.597	4.344
117.96	4.2126
124.369	4.2781
132.96	4.1074
