Adsorption isotherm of Carbon Dioxide, Methane on Calgon F-400
DOI: 10.1016/j.fuel.2017.09.012
Article source: Figure 2
Adsorbate Carbon Dioxide: InChIKey CURLTUGMZLYLDI-UHFFFAOYSA-N
Adsorbate Methane: InChIKey VNWKTOKETHGBQD-UHFFFAOYSA-N
Kind: experiment
Isotherm type: excess
Temperature: 318 K
Tabular data in the source: 0
pressure (bar)	Carbon Dioxide fraction	Carbon Dioxide uptake (mmol/g)	Methane fraction	Methane uptake (mmol/g)	total uptake (mmol/g)
7.156	0.8	2.8736	0.2	0.5619	
13.488	0.8	3.8988	0.2	0.6569	
27.684	0.8	5.0057	0.2	0.6516	
42.288	0.8	5.5819	0.2	0.5989	
55.768	0.8	5.9443	0.2	0.4669	
69.963	0.8	6.0339	0.2	0.4142	
83.137	0.8	6.0203	0.2	0.2928	
96.617	0.8	5.7856	0.2	0.2083	
109.996	0.8	5.5803	0.2	0.1608	
123.885	0.8	5.1835	0.2	0.1186	
