Adsorption isotherm of Methane on Marcellus Shale
DOI: 10.1016/j.fuel.2017.09.012
Article source: Figure 8
Adsorbate Methane: InChIKey VNWKTOKETHGBQD-UHFFFAOYSA-N
Kind: experiment
Isotherm type: excess
Temperature: 323 K
Tabular data in the source: 0
pressure (bar)	uptake (mmol/g)
5.5	0.038154
10.21	0.052133
19.639	0.068349
29.473	0.082608
39.582	0.090157
59.935	0.103857
79.89	0.10917
99.847	0.111687
113.873	0.111688
