Adsorption isotherm of Carbon Dioxide, Methane on Calgon F-400
DOI: 10.1016/j.fuel.2017.09.012
Article source: Figure 2
Adsorbate Carbon Dioxide: InChIKey CURLTUGMZLYLDI-UHFFFAOYSA-N
Adsorbate Methane: InChIKey VNWKTOKETHGBQD-UHFFFAOYSA-N
Kind: experiment
Isotherm type: excess
Temperature: 318 K
Tabular data in the source: 0
pressure (bar)	Carbon Dioxide fraction	Carbon Dioxide uptake (mmol/g)	Methane fraction	Methane uptake (mmol/g)	total uptake (mmol/g)
7.043	0.599	1.9096	0.401	1.0534	
14.584	0.599	2.7276	0.401	1.3424	
27.555	0.599	3.5553	0.401	1.4555	
41.902	0.599	4.1231	0.401	1.4052	
55.6	0.599	4.4307	0.401	1.3424	
69.055	0.599	4.664	0.401	1.1874	
82.753	0.599	4.7674	0.401	1.0785	
97.018	0.599	4.8243	0.401	0.9403	
110.311	0.599	4.7883	0.401	0.8147	
124.171	0.599	4.6688	0.401	0.6974	
