Adsorption isotherm of Carbon Dioxide on Montney Shale
DOI: 10.1016/j.fuel.2017.09.012
Article source: Figure 5
Adsorbate Carbon Dioxide: InChIKey CURLTUGMZLYLDI-UHFFFAOYSA-N
Kind: experiment
Isotherm type: excess
Temperature: 313 K
Tabular data in the source: 0
pressure (bar)	uptake (mmol/g)
2.636	0.015499
4.993	0.026014
8.563	0.042869
16.574	0.069369
24.717	0.085492
33.597	0.094838
41.67	0.102169
