Adsorption isotherm of Carbon Dioxide, Methane on Calgon F-400
DOI: 10.1016/j.fuel.2017.09.012
Article source: Figure 2
Adsorbate Carbon Dioxide: InChIKey CURLTUGMZLYLDI-UHFFFAOYSA-N
Adsorbate Methane: InChIKey VNWKTOKETHGBQD-UHFFFAOYSA-N
Kind: experiment
Isotherm type: excess
Temperature: 318 K
Tabular data in the source: 0
pressure (bar)	Carbon Dioxide fraction	Carbon Dioxide uptake (mmol/g)	Methane fraction	Methane uptake (mmol/g)	total uptake (mmol/g)
7.782	0.2	0.5591	0.8	1.934	
14.835	0.2	0.7734	0.8	2.525	
28.117	0.2	1.0473	0.8	3.0369	
41.396	0.2	1.24	0.8	3.2427	
55.592	0.2	1.4035	0.8	3.3113	
69.38	0.2	1.5005	0.8	3.3324	
83.269	0.2	1.5606	0.8	3.2638	
96.749	0.2	1.6208	0.8	3.1635	
110.331	0.2	1.6661	0.8	3.058	
124.117	0.2	1.6747	0.8	2.9472	
