Adsorption isotherm of Methane on Barnett Shale
DOI: 10.1016/j.fuel.2017.09.012
Article source: Figure 5
Adsorbate Methane: InChIKey VNWKTOKETHGBQD-UHFFFAOYSA-N
Kind: experiment
Isotherm type: excess
Temperature: 313 K
Tabular data in the source: 0
pressure (bar)	uptake (mmol/g)
4.582	0.005122
13.868	0.023238
41.701	0.043784
76.351	0.053783
103.822	0.057023
117.469	0.056479
