Adsorption isotherm of Methane on Eagle Ford Shale
DOI: 10.1016/j.fuel.2017.09.012
Article source: Figure 5
Adsorbate Methane: InChIKey VNWKTOKETHGBQD-UHFFFAOYSA-N
Kind: experiment
Isotherm type: excess
Temperature: 313 K
Tabular data in the source: 0
pressure (bar)	uptake (mmol/g)
4.859	0.001611
10.855	0.002469
14.851	0.003544
26.842	0.005189
33.896	0.006119
40.95	0.006474
47.416	0.007333
55.058	0.007617
64.111	0.007685
75.281	0.007896
88.213	0.008751
101.146	0.008746
