Adsorption isotherm of Ethane on Marcellus Shale
DOI: 10.1016/j.fuel.2017.09.012
Article source: Figure 8
Adsorbate Ethane: InChIKey OTMSDBZUPAUEDD-UHFFFAOYSA-N
Kind: experiment
Isotherm type: excess
Temperature: 333 K
Tabular data in the source: 0
pressure (bar)	uptake (mmol/g)
0.922	0.028678
1.87	0.043205
5.133	0.068714
8.136	0.083593
11.908	0.097586
15.851	0.109275
19.792	0.117244
25.018	0.125567
35.638	0.137605
