Adsorption isotherm of Carbon Dioxide on Nanchuan Shale
DOI: 10.1016/j.fuel.2017.09.012
Article source: Figure 6
Adsorbate Carbon Dioxide: InChIKey CURLTUGMZLYLDI-UHFFFAOYSA-N
Kind: experiment
Isotherm type: excess
Temperature: 318 K
Tabular data in the source: 0
pressure (bar)	uptake (mmol/g)
1.5092	0.046842
1.9263	0.056198
2.5222	0.067893
3.019	0.073156
4.0526	0.080758
5.0262	0.094207
6.0398	0.102978
6.954	0.11175
8.0074	0.120229
9.0013	0.126661
10.0348	0.137187
11.0088	0.143327
11.9826	0.152683
13.0163	0.158823
14.0698	0.16584
15.0239	0.172857
16.0378	0.176366
17.0315	0.1866
18.0056	0.190693
19.0394	0.194202
