Adsorption isotherm of Nitrogen on Calgon F-400
DOI: 10.1016/j.fuel.2017.09.012
Article source: Figure 1
Adsorbate Nitrogen: InChIKey IJGRMHOSHXDMSA-UHFFFAOYSA-N
Kind: experiment
Isotherm type: excess
Temperature: 318 K
Tabular data in the source: 0
pressure (bar)	uptake (mmol/g)
6.689	0.9988
8.871	1.1562
17.325	1.7467
18.007	1.7598
27.825	2.1928
28.507	2.219
40.779	2.5469
42.007	2.5863
54.961	2.8224
70.097	2.9927
83.324	3.0975
97.097	3.1367
111.142	3.2021
111.688	3.2152
124.506	3.1888
136.506	3.228
