Adsorption isotherm of Carbon Dioxide, Nitrogen on Calgon F-400
DOI: 10.1016/j.fuel.2017.09.012
Article source: Figure 3
Adsorbate Carbon Dioxide: InChIKey CURLTUGMZLYLDI-UHFFFAOYSA-N
Adsorbate Nitrogen: InChIKey IJGRMHOSHXDMSA-UHFFFAOYSA-N
Kind: experiment
Isotherm type: excess
Temperature: 318 K
Tabular data in the source: 0
pressure (bar)	Carbon Dioxide fraction	Carbon Dioxide uptake (mmol/g)	Nitrogen fraction	Nitrogen uptake (mmol/g)	total uptake (mmol/g)
7.811	0.2	0.3616	0.8	0.9593	
15.46	0.2	0.5756	0.8	1.3949	
27.49	0.2	0.8413	0.8	1.798	
41.633	0.2	1.0921	0.8	2.0144	
55.771	0.2	1.3208	0.8	2.1009	
69.481	0.2	1.4904	0.8	2.117	
83.474	0.2	1.6748	0.8	2.1033	
97.253	0.2	1.8075	0.8	2.0572	
111.102	0.2	1.9402	0.8	1.9894	
126.364	0.2	2.0433	0.8	1.9026	
