Adsorption isotherm of Carbon Dioxide, Nitrogen on Calgon F-400
DOI: 10.1016/j.fuel.2017.09.012
Article source: Figure 3
Adsorbate Carbon Dioxide: InChIKey CURLTUGMZLYLDI-UHFFFAOYSA-N
Adsorbate Nitrogen: InChIKey IJGRMHOSHXDMSA-UHFFFAOYSA-N
Kind: experiment
Isotherm type: excess
Temperature: 318 K
Tabular data in the source: 0
pressure (bar)	Carbon Dioxide fraction	Carbon Dioxide uptake (mmol/g)	Nitrogen fraction	Nitrogen uptake (mmol/g)	total uptake (mmol/g)
7.901	0.6	1.4691	0.4	0.5949	
14.228	0.6	2.1482	0.4	0.7381	
26.785	0.6	3.152	0.4	0.7891	
41.651	0.6	3.9492	0.4	0.6935	
55.27	0.6	4.4289	0.4	0.574	
69.6	0.6	4.8126	0.4	0.4511	
82.506	0.6	5.1299	0.4	0.3214	
98.529	0.6	5.2921	0.4	0.2156	
112.325	0.6	5.41	0.4	0.0722	
126.833	0.6	5.5132	0.4	-0.0779	
