Adsorption isotherm of Carbon Dioxide on Eagle Ford Shale
DOI: 10.1016/j.fuel.2017.09.012
Article source: Figure 5
Adsorbate Carbon Dioxide: InChIKey CURLTUGMZLYLDI-UHFFFAOYSA-N
Kind: experiment
Isotherm type: excess
Temperature: 313 K
Tabular data in the source: 0
pressure (bar)	uptake (mmol/g)
2.505	0.00484
5.911	0.008353
8.849	0.009786
11.551	0.012009
16.017	0.014518
22.481	0.017241
28.475	0.019893
38.114	0.022184
45.167	0.023473
