Adsorption isotherm of Nitrogen, Methane on Calgon F-400
DOI: 10.1016/j.fuel.2017.09.012
Article source: Figure 4
Adsorbate Nitrogen: InChIKey IJGRMHOSHXDMSA-UHFFFAOYSA-N
Adsorbate Methane: InChIKey VNWKTOKETHGBQD-UHFFFAOYSA-N
Kind: experiment
Isotherm type: excess
Temperature: 318 K
Tabular data in the source: 0
pressure (bar)	Nitrogen fraction	Nitrogen uptake (mmol/g)	Methane fraction	Methane uptake (mmol/g)	total uptake (mmol/g)
7.064	0.4	0.4828	0.6	1.1407	
14.326	0.4	0.6554	0.6	1.6973	
27.085	0.4	0.7619	0.6	2.3109	
42.154	0.4	0.8023	0.6	2.7663	
55.131	0.4	0.7877	0.6	3.0066	
69.648	0.4	0.7621	0.6	3.209	
83.615	0.4	0.6998	0.6	3.3482	
97.252	0.4	0.6595	0.6	3.4114	
110.668	0.4	0.6155	0.6	3.4684	
124.634	0.4	0.5385	0.6	3.519	
