Adsorption isotherm of Carbon Dioxide, Nitrogen on Calgon F-400
DOI: 10.1016/j.fuel.2017.09.012
Article source: Figure 3
Adsorbate Carbon Dioxide: InChIKey CURLTUGMZLYLDI-UHFFFAOYSA-N
Adsorbate Nitrogen: InChIKey IJGRMHOSHXDMSA-UHFFFAOYSA-N
Kind: experiment
Isotherm type: excess
Temperature: 318 K
Tabular data in the source: 0
pressure (bar)	Carbon Dioxide fraction	Carbon Dioxide uptake (mmol/g)	Nitrogen fraction	Nitrogen uptake (mmol/g)	total uptake (mmol/g)
6.555	0.8	2.2348	0.2	0.3221	
14.659	0.8	3.5649	0.2	0.3493	
27.834	0.8	4.7832	0.2	0.2913	
41.365	0.8	5.4992	0.2	0.2059	
54.895	0.8	5.9362	0.2	0.1035	
69.94	0.8	6.1965	0.2	0.0283	
83.382	0.8	6.2521	0.2	-0.0673	
97.358	0.8	6.2426	0.2	-0.1458	
111.067	0.8	6.1308	0.2	-0.2312	
125.133	0.8	5.8423	0.2	-0.2927	
