Adsorption isotherm of Nitrogen, Methane on Calgon F-400
DOI: 10.1016/j.fuel.2017.09.012
Article source: Figure 4
Adsorbate Nitrogen: InChIKey IJGRMHOSHXDMSA-UHFFFAOYSA-N
Adsorbate Methane: InChIKey VNWKTOKETHGBQD-UHFFFAOYSA-N
Kind: experiment
Isotherm type: excess
Temperature: 318 K
Tabular data in the source: 0
pressure (bar)	Nitrogen fraction	Nitrogen uptake (mmol/g)	Methane fraction	Methane uptake (mmol/g)	total uptake (mmol/g)
7.487	0.8	0.9086	0.2	0.3472	
15.109	0.8	1.3492	0.2	0.5305	
27.857	0.8	1.7567	0.2	0.7616	
42.129	0.8	1.9807	0.2	0.9449	
55.708	0.8	2.1129	0.2	1.0883	
69.563	0.8	2.2121	0.2	1.1521	
83.696	0.8	2.2195	0.2	1.2477	
96.997	0.8	2.2343	0.2	1.2955	
110.852	0.8	2.2417	0.2	1.3194	
124.708	0.8	2.2198	0.2	1.3513	
