Adsorption isotherm of Ethane on Marcellus Shale
DOI: 10.1016/j.fuel.2017.09.012
Article source: Figure 8
Adsorbate Ethane: InChIKey OTMSDBZUPAUEDD-UHFFFAOYSA-N
Kind: experiment
Isotherm type: excess
Temperature: 323 K
Tabular data in the source: 0
pressure (bar)	uptake (mmol/g)
1.847	0.055487
5.336	0.079671
7.885	0.097983
11.921	0.112101
15.756	0.123564
19.795	0.132231
24.509	0.141178
29.832	0.147329
34.818	0.151662
