Adsorption isotherm of Carbon Dioxide on Barnett Shale
DOI: 10.1016/j.fuel.2017.09.012
Article source: Figure 5
Adsorbate Carbon Dioxide: InChIKey CURLTUGMZLYLDI-UHFFFAOYSA-N
Kind: experiment
Isotherm type: excess
Temperature: 313 K
Tabular data in the source: 0
pressure (bar)	uptake (mmol/g)
3.367	0.019184
8.63	0.03987
14.066	0.05704
20.986	0.071371
28.692	0.082863
37.272	0.092055
41.998	0.095705
