Adsorption isotherm of Carbon Dioxide on Marcellus Shale
DOI: 10.1016/j.fuel.2017.09.012
Article source: Figure 5
Adsorbate Carbon Dioxide: InChIKey CURLTUGMZLYLDI-UHFFFAOYSA-N
Kind: experiment
Isotherm type: excess
Temperature: 313 K
Tabular data in the source: 0
pressure (bar)	uptake (mmol/g)
1.001	0.005254
3.225	0.010757
6.149	0.021875
10.947	0.031046
13.874	0.035403
23.357	0.044004
32.372	0.048823
37.875	0.050546
46.775	0.052614
