Adsorption isotherm of Methane on Marcellus Shale
DOI: 10.1016/j.fuel.2017.09.012
Article source: Figure 8
Adsorbate Methane: InChIKey VNWKTOKETHGBQD-UHFFFAOYSA-N
Kind: experiment
Isotherm type: excess
Temperature: 333 K
Tabular data in the source: 0
pressure (bar)	uptake (mmol/g)
5.372	0.024599
10.343	0.038237
20.025	0.057717
29.961	0.07011
40.238	0.079845
60.104	0.09223
79.712	0.100185
100.003	0.10318
113.873	0.105648
