Adsorption isotherm of Methane on Montney Shale
DOI: 10.1016/j.fuel.2017.09.012
Article source: Figure 5
Adsorbate Methane: InChIKey VNWKTOKETHGBQD-UHFFFAOYSA-N
Kind: experiment
Isotherm type: excess
Temperature: 313 K
Tabular data in the source: 0
pressure (bar)	uptake (mmol/g)
2.229	0.004257
7.071	0.005975
9.494	0.00914
20.659	0.014013
23.753	0.01487
29.673	0.018027
38.685	0.020311
44.604	0.022602
53.751	0.022868
65.185	0.025435
77.964	0.027709
89.128	0.028547
