Adsorption isotherm of Methane on Marcellus Shale
DOI: 10.1016/j.fuel.2017.09.012
Article source: Figure 5
Adsorbate Methane: InChIKey VNWKTOKETHGBQD-UHFFFAOYSA-N
Kind: experiment
Isotherm type: excess
Temperature: 313 K
Tabular data in the source: 0
pressure (bar)	uptake (mmol/g)
4.983	0.003309
8.027	0.006061
16.925	0.011338
21.141	0.012716
34.49	0.015933
48.892	0.018578
55.333	0.019384
68.565	0.019966
79.104	0.020545
84.14	0.020434
93.157	0.020898
99.363	0.021475
