Adsorption isotherm of Argon on CTF- 1_LiCl
DOI: 10.1016/j.micromeso.2016.10.002
Article source: Figure 2
Adsorbate Argon: InChIKey XKRFYHLGVUSROY-UHFFFAOYSA-N
Kind: experiment
Temperature: 87 K
Tabular data in the source: 0
pressure (bar)	uptake (cm3(STP)/g)
0.000659	125.29
0.00077	7.45
0.000882	60.95
0.00233	167.62
0.003536	209.94
0.013	220.79
0.026486	230.96
0.035169	248.91
0.043994	265.17
0.071757	289.24
0.10339	325.16
0.122469	343.46
0.151002	364.48
0.179392	382.79
0.196455	395.34
0.230631	417.41
0.258374	439.62
0.284181	454.14
0.306462	468.67
0.330303	483.19
0.352199	492.6
0.381907	513.96
0.401837	532.75
0.43115	554.1
0.458892	580.58
0.481963	585.72
0.513221	619.88
0.529646	626.72
0.555422	658.31
0.58356	684.79
0.608181	708.7
0.633583	737.73
0.663676	760.8
0.688267	817.98
0.705076	821.41
0.731582	905.14
0.758595	1007.29
0.762618	923.44
0.792467	1153.53
0.808831	1037.44
0.819348	1402.96
0.835003	1524.45
0.856919	1260.01
0.866504	1570.7
0.88225	1593.29
0.911796	1610.52
0.918696	1618.05
0.927551	1630.96
0.95808	1658.94
