Adsorption isotherm of Argon on CTF- 1_NaCl
DOI: 10.1016/j.micromeso.2016.10.002
Article source: Figure 2
Adsorbate Argon: InChIKey XKRFYHLGVUSROY-UHFFFAOYSA-N
Kind: experiment
Temperature: 87 K
Tabular data in the source: 0
pressure (bar)	uptake (cm3(STP)/g)
0.00077	7.45
0.000882	60.95
0.00691	138.01
0.014753	183.16
0.016688	227.24
0.025037	262.73
0.050631	297.15
0.078687	329.42
0.102316	350.95
0.128903	375.7
0.149593	391.84
0.179139	409.07
0.186647	427.16
0.216122	446.14
0.237835	465.13
0.267624	481.41
0.319137	499.74
0.354803	537.01
0.378067	554.64
0.414989	574.32
0.436064	609.55
0.458699	640.72
0.481345	660.38
0.510881	610.29
0.516403	686.15
0.540913	702.42
0.555868	642.16
0.559212	713.95
0.581219	748.51
0.602021	753.95
0.603318	688.93
0.644526	781.07
0.649379	808.32
0.663726	741.68
0.678428	837.37
0.711409	869.65
0.713962	777.2
0.741431	918.05
0.758251	838.51
0.762081	967.52
0.787158	1029.89
0.807463	917.03
0.811739	1093.34
0.842278	1105.19
0.854578	1129.93
0.862563	1018.13
0.887103	1123.51
0.905321	1139.65
0.9083	1119.23
0.931918	1157.95
0.957057	1150.45
0.966419	1144
0.978243	1155.84
0.984637	1160.15
