Adsorption isotherm of Argon on CTF- 1_KCl
DOI: 10.1016/j.micromeso.2016.10.002
Article source: Figure 2
Adsorbate Argon: InChIKey XKRFYHLGVUSROY-UHFFFAOYSA-N
Kind: experiment
Temperature: 87 K
Tabular data in the source: 0
pressure (bar)	uptake (cm3(STP)/g)
-0.000162	6.43
0.002604	40.3
0.004124	78.22
0.004408	103.28
0.005938	130.37
0.010254	158.14
0.01146	199.45
0.012979	238.06
0.015128	261.76
0.023173	294.95
0.046112	332.22
0.061929	351.2
0.07278	361.37
0.096662	389.15
0.127059	418.3
0.149705	429.83
0.182594	453.56
0.195006	458.32
0.209273	473.23
0.226335	478.66
0.252406	484.78
0.28032	509.86
0.307637	512.59
0.330597	528.87
0.35915	538.37
0.382727	555.32
0.402273	562.79
0.429903	565.52
0.451323	565.54
0.475833	573.69
0.505328	573.72
0.527366	575.09
0.55375	580.53
0.578585	579.88
0.606519	581.93
0.627007	581.27
0.656806	588.75
0.679148	592.83
0.702746	589.47
0.719201	588.13
0.733163	588.14
0.754887	598.32
0.766377	594.94
0.786246	597.67
0.808588	600.4
0.826593	599.06
0.834354	599.06
0.858256	597.05
0.86385	599.77
0.876566	605.2
0.908543	605.9
0.918787	608.62
0.930267	610.66
0.957269	612.04
0.969692	613.4
0.991415	612.75
