Adsorption isotherm of Argon on CTF- 1_KCl
DOI: 10.1016/j.micromeso.2016.10.002
Article source: Figure 2
Adsorbate Argon: InChIKey XKRFYHLGVUSROY-UHFFFAOYSA-N
Kind: experiment
Temperature: 87 K
Tabular data in the source: 0
pressure (bar)	uptake (cm3(STP)/g)
0.00077	7.45
0.000882	60.95
0.00691	138.01
0.014753	183.16
0.016688	227.24
0.025037	262.73
0.050631	297.15
0.078687	329.42
0.102316	350.95
0.128903	375.7
0.149593	391.84
0.179139	409.07
0.200812	416.61
0.228382	443.51
0.24661	455.35
0.280107	469.36
0.309167	482.28
0.337243	496.28
0.352999	510.27
0.386973	537.18
0.411604	545.8
0.439661	581.3
0.454444	584.54
0.483483	620.04
0.507111	644.79
0.509108	618.99
0.53913	656.64
0.549991	636.22
0.560296	684.61
0.589811	741.61
0.612437	788.93
0.612528	685.73
0.629246	853.52
0.657465	890.79
0.658326	726.62
0.684437	924
0.709575	934.18
0.710335	780.45
0.733153	945.04
0.75437	831.28
0.756741	956.57
0.779711	953.21
0.799266	953.22
0.813918	888.22
0.828761	957.99
0.854842	944.47
0.855754	967.49
0.879342	978.35
0.903862	980.4
0.910701	966.19
0.934593	981.79
0.958181	984.52
0.983015	984.54
