Adsorption isotherm of Nitrogen on C65H113N15O19ZnLi0.20
DOI: 10.1021/Ja809954r
Adsorbate Nitrogen: InChIKey IJGRMHOSHXDMSA-UHFFFAOYSA-N
Temperature: 77 K
Tabular data in the source: 0
pressure (bar)	uptake (cm3(STP)/g)
0.00235115	70.87
0.00449981	170.086
0.0129482	187.423
0.0329386	189.03
0.0443119	196.922
0.0671259	203.258
0.0813903	206.431
0.0956772	206.454
0.109964	206.477
0.155637	212.851
0.201321	217.649
0.252743	219.307
0.301262	227.26
0.349815	230.488
0.398357	235.291
0.446921	236.945
0.495463	241.748
0.544004	246.551
0.592546	251.354
0.638197	260.877
0.686738	265.68
0.73528	270.483
0.783822	275.286
0.832352	281.664
0.880905	284.892
0.929402	295.995
0.968539	417.318
