Adsorption isotherm of Hydrogen on C65H113N15O19ZnMg.86
DOI: 10.1021/Ja809954r
Adsorbate Hydrogen: InChIKey UFHFLCQGNIYNRP-UHFFFAOYSA-N
Temperature: 87 K
Tabular data in the source: 0
pressure (bar)	uptake (wt%)
0.0047366	0.0118233
0.00948711	0.0283802
0.0590858	0.106371
0.110973	0.163054
0.162818	0.205537
0.212285	0.238557
0.264088	0.266839
0.313534	0.292759
0.367674	0.316301
0.417099	0.33512
0.464166	0.351578
0.518293	0.370387
0.570061	0.386834
0.624167	0.398542
0.67122	0.410266
0.722975	0.42198
0.772372	0.431332
0.824141	0.447779
0.875902	0.461859
0.92765	0.471206
0.977047	0.480558
