Adsorption isotherm of Nitrogen on C65H113N15O19ZnLi2.62
DOI: 10.1021/Ja809954r
Adsorbate Nitrogen: InChIKey IJGRMHOSHXDMSA-UHFFFAOYSA-N
Temperature: 77 K
Tabular data in the source: 0
pressure (bar)	uptake (cm3(STP)/g)
1.11e-16	1.11e-16
0.0021166	16.3768
0.0042332	28.0753
0.0063498	57.3176
0.0148162	60.8366
0.031749	64.3657
0.0380988	64.3734
0.0486818	64.3861
0.063498	64.4039
0.0719644	66.7533
0.0867807	67.9407
0.0994803	67.956
0.11218	67.9713
0.156628	70.364
0.203194	72.7592
0.256109	75.1621
0.304791	75.2207
0.351356	78.7856
0.400038	80.0138
0.448719	81.242
0.495285	85.9764
0.546083	89.5463
0.596882	94.2858
0.643447	95.5115
0.694245	99.0814
0.742927	101.479
0.789492	106.214
0.838174	108.611
0.884739	121.533
0.935538	132.12
0.969403	171.927
