Adsorption isotherm of Nitrogen on C65H113N15O19ZnMg.86
DOI: 10.1021/Ja809954r
Adsorbate Nitrogen: InChIKey IJGRMHOSHXDMSA-UHFFFAOYSA-N
Temperature: 77 K
Tabular data in the source: 0
pressure (bar)	uptake (cm3(STP)/g)
0.00165368	168.507
0.00195742	125.987
0.00248614	51.9725
0.00727844	181.114
0.018663	187.432
0.0300587	192.175
0.0528728	198.511
0.070017	198.539
0.0899849	203.295
0.109975	204.903
0.155693	204.977
0.201389	208.2
0.249942	211.429
0.301352	214.662
0.349916	216.315
0.395623	217.964
0.444199	218.043
0.495609	221.276
0.541305	224.499
0.592726	226.158
0.638444	226.232
0.689854	229.465
0.735561	231.114
0.781257	234.337
0.832667	237.57
0.87834	243.943
0.923946	259.765
0.960507	341.714
