Adsorption isotherm of Hydrogen on C65H113N15O19Zn
DOI: 10.1021/Ja809954r
Adsorbate Hydrogen: InChIKey UFHFLCQGNIYNRP-UHFFFAOYSA-N
Temperature: 77 K
Tabular data in the source: 0
pressure (bar)	uptake (wt%)
0.00358167	0.0725384
0.0104622	0.117152
0.0413305	0.284423
0.0515885	0.329018
0.106036	0.473835
0.160342	0.568419
0.214586	0.640678
0.262043	0.701812
0.319632	0.76289
0.367042	0.807281
0.417845	0.857233
0.468633	0.901605
0.519389	0.934813
0.573538	0.973585
0.620916	1.00681
0.675034	1.03442
0.72579	1.06763
0.779923	1.10082
0.827286	1.12847
0.884766	1.15048
0.932144	1.1837
0.979491	1.20577
1.02345	1.22227
