Adsorption isotherm of Nitrogen on C65H113N15O19Zn
DOI: 10.1021/Ja809954r
Adsorbate Nitrogen: InChIKey IJGRMHOSHXDMSA-UHFFFAOYSA-N
Temperature: 77 K
Tabular data in the source: 0
pressure (bar)	uptake (cm3(STP)/g)
0.00223865	86.6178
0.00453356	165.362
0.0101358	181.119
0.0443344	193.773
0.0643135	196.955
0.101426	201.739
0.127131	203.356
0.152847	203.397
0.18141	205.018
0.2014	206.626
0.249953	209.854
0.281396	208.33
0.304243	209.942
0.349939	213.166
0.395657	213.24
0.444232	213.319
0.489928	216.542
0.547076	216.635
0.589936	216.704
0.6385	218.358
0.687065	220.011
0.738486	221.67
0.784227	218.594
0.815658	218.645
0.829934	220.243
0.881355	221.901
0.927051	225.125
0.969799	240.942
