Adsorption isotherm of Hydrogen on C65H113N15O19ZnLi0.20
DOI: 10.1021/Ja809954r
Adsorbate Hydrogen: InChIKey UFHFLCQGNIYNRP-UHFFFAOYSA-N
Temperature: 87 K
Tabular data in the source: 0
pressure (bar)	uptake (wt%)
1.39e-05	0.00825959
4.85e-05	0.0289086
0.00950774	0.0619469
0.0591546	0.227139
0.111069	0.342773
0.16057	0.421239
0.212395	0.483186
0.264205	0.536873
0.315995	0.578171
0.365441	0.623599
0.417217	0.656637
0.466635	0.685546
0.518397	0.710324
0.570152	0.730973
0.6219	0.747493
0.673662	0.772271
0.723059	0.788791
0.77245	0.80118
0.824288	0.871386
0.87605	0.896165
0.92544	0.908555
0.977189	0.925074
