Adsorption isotherm of Hydrogen on C65H113N15O19ZnLi0.20
DOI: 10.1021/Ja809954r
Adsorbate Hydrogen: InChIKey UFHFLCQGNIYNRP-UHFFFAOYSA-N
Temperature: 77 K
Tabular data in the source: 0
pressure (bar)	uptake (wt%)
0.00367592	0.106026
0.00722617	0.167402
0.0553587	0.468532
0.109806	0.613349
0.164144	0.719096
0.211617	0.785811
0.265876	0.863652
0.313301	0.913623
0.364105	0.963576
0.421631	1.00233
0.472356	1.02437
0.523096	1.052
0.573852	1.08521
0.624576	1.10726
0.675285	1.12372
0.72279	1.2016
0.776923	1.23479
0.827632	1.25126
0.878341	1.26772
0.929049	1.28418
0.98312	1.29505
