Adsorption isotherm of Nitrogen on C65H113N15O19ZnMg2.02
DOI: 10.1021/Ja809954r
Adsorbate Nitrogen: InChIKey IJGRMHOSHXDMSA-UHFFFAOYSA-N
Temperature: 77 K
Tabular data in the source: 0
pressure (bar)	uptake (cm3(STP)/g)
0	0
0.00214938	97.6378
0.0107469	113.386
0.0257926	119.685
0.154755	132.283
0.199892	136.483
0.251478	138.583
0.300913	142.782
0.3482	144.882
0.395486	146.982
0.447071	149.081
0.490059	153.281
0.541644	155.381
0.59108	159.58
0.636217	159.58
0.687802	162.73
0.737238	165.879
0.782375	167.979
0.83181	172.178
0.876947	178.478
0.922084	184.777
0.967221	229.921
