Adsorption isotherm of Hydrogen on C65H113N15O19ZnMg2.02
DOI: 10.1021/Ja809954r
Adsorbate Hydrogen: InChIKey UFHFLCQGNIYNRP-UHFFFAOYSA-N
Temperature: 87 K
Tabular data in the source: 0
pressure (bar)	uptake (wt%)
0.00238974	0.0280374
0.00955896	0.05919
0.0573538	0.214953
0.102759	0.302181
0.155333	0.373832
0.207907	0.429907
0.260482	0.476636
0.310666	0.510903
0.363241	0.545171
0.413425	0.576324
0.46361	0.601246
0.513794	0.623053
0.566369	0.641745
0.618943	0.663551
0.669127	0.679128
0.719312	0.697819
0.767107	0.722741
0.822071	0.741433
0.874645	0.753894
0.92483	0.76947
0.975014	0.785047
