Adsorption isotherm of Hydrogen on C65H113N15O19ZnMg.86
DOI: 10.1021/Ja809954r
Adsorbate Hydrogen: InChIKey UFHFLCQGNIYNRP-UHFFFAOYSA-N
Temperature: 77 K
Tabular data in the source: 0
pressure (bar)	uptake (wt%)
0.00340887	0.011144
0.00355025	0.0613758
0.00708479	0.11717
0.0516043	0.334599
0.109382	0.462653
0.156933	0.557275
0.211161	0.623953
0.261996	0.685068
0.316192	0.740584
0.363618	0.790555
0.414405	0.834927
0.471916	0.868098
0.519294	0.901326
0.57005	0.934534
0.620791	0.962162
0.671547	0.995371
0.725649	1.0174
0.776373	1.03944
0.823752	1.07267
0.874492	1.1003
0.93194	1.11115
0.98268	1.13877
