Adsorption isotherm of Hydrogen on C65H113N15O19Zn
DOI: 10.1021/Ja809954r
Adsorbate Hydrogen: InChIKey UFHFLCQGNIYNRP-UHFFFAOYSA-N
Temperature: 87 K
Tabular data in the source: 0
pressure (bar)	uptake (wt%)
3.04e-05	0.015534
0.00713647	0.0427184
0.0543985	0.16699
0.10866	0.264078
0.160517	0.333981
0.21236	0.396117
0.259485	0.450485
0.311289	0.493204
0.3631	0.539806
0.417248	0.578641
0.466671	0.605825
0.51846	0.640777
0.570248	0.675728
0.622014	0.699029
0.673796	0.730097
0.72086	0.753398
0.772656	0.792233
0.824407	0.807767
0.873838	0.838835
0.974988	0.869903
