Adsorption isotherm of Hydrogen on C65H113N15O19ZnLi2.62
DOI: 10.1021/Ja809954r
Adsorbate Hydrogen: InChIKey UFHFLCQGNIYNRP-UHFFFAOYSA-N
Temperature: 87 K
Tabular data in the source: 0
pressure (bar)	uptake (wt%)
0.00235093	0.00475638
0.0117546	0.0237819
0.0611241	0.0927135
0.115195	0.140206
0.164565	0.185328
0.218636	0.228058
0.263304	0.258905
0.315024	0.292117
0.366745	0.320567
0.418465	0.351398
0.467835	0.384615
0.519555	0.408303
0.566574	0.432002
0.620645	0.479494
0.670015	0.503187
0.719384	0.5245
0.773455	0.548183
0.820474	0.569501
0.872194	0.588427
0.921564	0.640692
0.975635	0.664374
