Adsorption isotherm of Phosphate Ion, Ammonium Ion, Water on Ze-Mg1
DOI: 10.1002/jctb.5249
Article source: Figures 2 and 3
Adsorbate Phosphate Ion: InChIKey NBIIXXVUZAFLBC-UHFFFAOYSA-K
Adsorbate Ammonium Ion: InChIKey QGZKDVFQNNGYKY-UHFFFAOYSA-O
Adsorbate Water: InChIKey XLYOFNOQVPJJNP-UHFFFAOYSA-N
Kind: experiment
Isotherm type: absolute
Temperature: 294 K
Tabular data in the source: 0
pressure (bar)	Phosphate Ion fraction	Phosphate Ion uptake (mg/g)	Ammonium Ion fraction	Ammonium Ion uptake (mg/g)	Water fraction	Water uptake (mg/g)	total uptake (mg/g)
1.01325	27.4	0.228	3.7	1.998			
1.01325	34.1	1.616	16.7	7.198			
1.01325	134.6	1.159	31.5	11.501			
1.01325	280.6	2.213	49	16.343			
1.01325	542.7	6.287	162.7	20.877			
1.01325	1446.3	7.887	285.2	22.262			
1.01325	2961	17.003	534	25.133			
1.01325	4387.2	17.866	765.6	27.875			
1.01325	5929.4	23.839	1154.2	31.875			
1.01325	7348.4	30.374	1422.8	33.087			
