Adsorption isotherm of Phosphate Ion, Ammonium Ion, Water on Ze-Ca
DOI: 10.1002/jctb.5249
Article source: Figures 2 and 3
Adsorbate Phosphate Ion: InChIKey NBIIXXVUZAFLBC-UHFFFAOYSA-K
Adsorbate Ammonium Ion: InChIKey QGZKDVFQNNGYKY-UHFFFAOYSA-O
Adsorbate Water: InChIKey XLYOFNOQVPJJNP-UHFFFAOYSA-N
Kind: experiment
Isotherm type: absolute
Temperature: 294 K
Tabular data in the source: 0
pressure (bar)	Phosphate Ion fraction	Phosphate Ion uptake (mg/g)	Ammonium Ion fraction	Ammonium Ion uptake (mg/g)	Water fraction	Water uptake (mg/g)	total uptake (mg/g)
1.01325	17	4.17	12.8	2.137			
1.01325	31.7	11.07	32.8	6.353			
1.01325	37.9	21.6	42.7	11.263			
1.01325	129.4	33.9	67	17.039			
1.01325	301.8	58.51	140.2	24.456			
1.01325	547.1	69.79	224.5	30.71			
1.01325	1072.4	79.5	425.6	41.761			
1.01325	1621.2	86.4	978.3	62.759			
1.01325	3913.2	108.29	1186.5	73.518			
1.01325	5282.7	124.03	1559.8	69.78			
1.01325	6802.2	109.4	2143.1	83.206			
1.01325	8121.2	112.99	3978.6	75.179			
1.01325	0	0	4594	81.838			
