Adsorption isotherm of Phosphate Ion, Ammonium Ion, Water on Ze-Mg2
DOI: 10.1002/jctb.5249
Article source: Figures 2 and 3
Adsorbate Phosphate Ion: InChIKey NBIIXXVUZAFLBC-UHFFFAOYSA-K
Adsorbate Ammonium Ion: InChIKey QGZKDVFQNNGYKY-UHFFFAOYSA-O
Adsorbate Water: InChIKey XLYOFNOQVPJJNP-UHFFFAOYSA-N
Kind: experiment
Isotherm type: absolute
Temperature: 294 K
Tabular data in the source: 0
pressure (bar)	Phosphate Ion fraction	Phosphate Ion uptake (mg/g)	Ammonium Ion fraction	Ammonium Ion uptake (mg/g)	Water fraction	Water uptake (mg/g)	total uptake (mg/g)
1.01325	260.5	4.594	6.4	0.225			
1.01325	545.4	8.8	11.2	1.758			
1.01325	2041.3	8	15.8	6.173			
1.01325	3020.8	10.705	156.8	19.747			
1.01325	4432.1	10.512	1127.4	27.305			
1.01325	7266.3	8.42	1737.4	28.46			
1.01325	8640.9	11.123	2357.2	30.146			
