Adsorption isotherm of Methane on Carbon Black
DOI: 10.1021/jp052448y
Adsorbate Methane: InChIKey VNWKTOKETHGBQD-UHFFFAOYSA-N
Temperature: 113 K
Tabular data in the source: 0
pressure (bar)	uptake (kmol/m3)
2.01e-07	0.866096
3.18e-07	0.982173
5.02e-07	0.982173
7.14e-07	0.982173
9.81e-07	0.982173
2.05e-06	1.11381
3.03e-06	1.11381
4.96e-06	1.43236
7.56e-06	1.62433
1e-05	2.08891
1.64e-05	3.91767
2.1e-05	4.44273
2.78e-05	22.7895
4.25e-05	80.159
5.43e-05	3076
6.26e-05	1.45e+16
7.2e-05	1.58e+17
8.59e-05	1.04e+18
9.89e-05	1.46e+19
0.000122	8.49e+19
0.000141	1.09e+20
0.000156	2.32e+20
0.000215	1.19e+21
0.000316	6.93e+21
0.000419	2.15e+22
0.0005	6.67e+22
0.000639	1.82e+23
0.00104673	4.4e+23
0.00227146	1.76e+24
0.00475862	5.44e+24
0.00962418	7.94e+24
0.0267235	1.02e+25
0.0540475	1.16e+25
0.105527	1.16e+25
0.293017	1.31e+25
0.431647	1.16e+25
1.04107	2.17e+25
