Adsorption isotherm of Methane on Carbon Black
DOI: 10.1021/jp052448y
Adsorbate Methane: InChIKey VNWKTOKETHGBQD-UHFFFAOYSA-N
Temperature: 143 K
Tabular data in the source: 0
pressure (bar)	uptake (micromoles/m2)
0.00119557	9.99e-08
0.00161685	1.34e-07
0.00221981	1.86e-07
0.00300198	2.6e-07
0.00399895	3.44e-07
0.00493981	4.47e-07
0.00698983	6.55e-07
0.00959652	9.32e-07
0.0135791	1.37e-06
0.017288	1.89e-06
0.024096	2.71e-06
0.030218	3.52e-06
0.0427584	4.57e-06
0.0595968	6.06e-06
0.0909395	6.83e-06
0.13464	7.56e-06
0.193412	8.11e-06
0.299618	8.7e-06
0.485641	9.24e-06
