Adsorption isotherm of Methane on Carbon Black
DOI: 10.1021/jp052448y
Adsorbate Methane: InChIKey VNWKTOKETHGBQD-UHFFFAOYSA-N
Temperature: 113 K
Tabular data in the source: 0
pressure (bar)	uptake (kmol/m3)
0.000104	0.120603
0.000199	0.207366
0.000297	0.467655
0.000409	0.511037
0.000618	0.988234
0.000706	1.11838
0.00121908	2.7235
0.00141143	3.54774
0.00163413	4.89257
0.0017938	5.63006
0.00246943	7.06165
0.0030155	7.62561
0.00409634	8.36309
0.00493599	8.75353
0.00726301	9.18734
0.0101326	9.49101
0.0199855	10.055
0.0306063	10.4888
0.0717794	11.4866
0.0900184	12.0071
0.105619	12.3542
0.105619	22.7658
0.111398	22.9393
0.151327	23.8937
0.202847	24.5878
0.306534	25.065
0.515302	25.8025
0.709386	26.6267
1.01638	27.1907
