Adsorption isotherm of Methane on Carbon Black
DOI: 10.1021/jp052448y
Adsorbate Methane: InChIKey VNWKTOKETHGBQD-UHFFFAOYSA-N
Temperature: 273 K
Tabular data in the source: 0
pressure (bar)	uptake (kmol/m3)
0.207653	0.748045
0.500145	1.96273
1.08288	3.83536
1.99827	6.46718
5.21334	10.5161
10.1467	13.3504
20.8292	15.9316
52.9137	18.4116
102.986	19.6262
200.442	20.7397
509.193	22.4605
759.292	23.0678
1045.27	23.7258
2145.74	25.7503
4066.48	27.9772
5168.14	29.1413
7114.68	29.0906
7706.56	29.1413
10330.3	29.6474
