Adsorption isotherm of Methane on Carbon Black
DOI: 10.1021/jp052448y
Adsorbate Methane: InChIKey VNWKTOKETHGBQD-UHFFFAOYSA-N
Temperature: 113 K
Tabular data in the source: 0
pressure (bar)	uptake (molecules/pore)
6.66e-07	0.374478
9.81e-07	0.374478
2.13e-06	0.374478
2.92e-06	0.374478
4.78e-06	0.811453
7.3e-06	0.811453
9.34e-06	1.24843
1.33e-05	1.6854
2.33e-05	2.99633
3.32e-05	5.1812
5.06e-05	7.36607
5.63e-05	13.0467
7.2e-05	54.1224
8.01e-05	97.3829
9.22e-05	105.248
0.000131	108.307
0.0002	115.736
0.000327	117.484
0.000377	119.232
0.000976	123.164
0.00996915	129.282
0.105527	131.03
1.04107	130.156
