Adsorption isotherm of Methane on Carbon Black
DOI: 10.1021/jp052448y
Adsorbate Methane: InChIKey VNWKTOKETHGBQD-UHFFFAOYSA-N
Temperature: 113 K
Tabular data in the source: 0
pressure (bar)	uptake (mol/m2)
0.000106	1.17e-07
0.000127	1.45e-07
0.000155	1.81e-07
0.000191	2.28e-07
0.000232	2.84e-07
0.000283	3.66e-07
0.00036	4.66e-07
0.000458	6.23e-07
0.000566	7.86e-07
0.00072	1.03e-06
0.00089	1.53e-06
0.00109927	2.02e-06
0.00133757	2.68e-06
0.00167739	4.13e-06
0.00207205	5.26e-06
0.00271883	6.37e-06
0.00440687	7.63e-06
0.00793891	8.19e-06
0.0130636	8.7e-06
0.0224921	8.88e-06
0.0359106	9.34e-06
0.0719011	9.62e-06
0.12194	1.03e-05
0.200655	1.07e-05
