Adsorption isotherm of Methane on Carbon Black
DOI: 10.1021/jp052448y
Adsorbate Methane: InChIKey VNWKTOKETHGBQD-UHFFFAOYSA-N
Temperature: 133 K
Tabular data in the source: 0
pressure (bar)	uptake (micromoles/m2)
0.00101269	2.02e-07
0.001349	2.65e-07
0.00174358	3.37e-07
0.00205846	4.17e-07
0.00266055	5.47e-07
0.00343874	7.4e-07
0.00418417	8.77e-07
0.00516862	1.14e-06
0.00619484	1.39e-06
0.00731359	1.76e-06
0.00863439	2.13e-06
0.010041	2.65e-06
0.0131753	3.66e-06
0.0162752	4.71e-06
0.0195066	5.59e-06
0.0306775	6.77e-06
0.0489794	7.63e-06
0.0725159	8.03e-06
0.124853	8.79e-06
0.246239	9.34e-06
0.370111	9.82e-06
0.478367	1.02e-05
