Adsorption isotherm of Methane on Carbon Black
DOI: 10.1021/jp052448y
Adsorbate Methane: InChIKey VNWKTOKETHGBQD-UHFFFAOYSA-N
Temperature: 123 K
Tabular data in the source: 0
pressure (bar)	uptake (micromoles/m2)
0.00102809	4.7e-07
0.00126997	6.3e-07
0.00166639	8.77e-07
0.00208976	1.21e-06
0.00262069	1.59e-06
0.00328652	2.11e-06
0.0042478	2.96e-06
0.00532701	3.97e-06
0.00742481	5.16e-06
0.00931118	6.43e-06
0.0139952	7.41e-06
0.0220099	8.27e-06
0.0434086	8.61e-06
0.0843295	9.34e-06
0.154228	9.82e-06
0.269579	1.05e-05
0.500524	1.12e-05
