Adsorption isotherm of Methane on Carbon Black
DOI: 10.1021/jp052448y
Adsorbate Methane: InChIKey VNWKTOKETHGBQD-UHFFFAOYSA-N
Temperature: 133 K
Tabular data in the source: 0
pressure (bar)	uptake (micromoles/m2)
0.00101269	2.02e-07
0.00143295	2.79e-07
0.00193787	3.85e-07
0.00258144	5.36e-07
0.00333649	7.1e-07
0.0041215	9.7e-07
0.0059206	1.44e-06
0.00765235	2e-06
0.010041	2.74e-06
0.0148661	4.13e-06
0.0201044	5.53e-06
0.0280215	6.43e-06
0.0421179	7.56e-06
0.0781999	8.36e-06
0.126752	8.88e-06
0.235339	9.53e-06
0.359106	1e-05
0.523707	1.02e-05
