Adsorption isotherm of Methane on Carbon Black
DOI: 10.1021/jp052448y
Adsorbate Methane: InChIKey VNWKTOKETHGBQD-UHFFFAOYSA-N
Temperature: 91 K
Tabular data in the source: 0
pressure (bar)	uptake (kmol/m3)
2.08e-08	0.187264
4.85e-08	0.187264
1.02e-07	0.121718
1.78e-07	0.383903
3.03e-07	0.514995
4.46e-07	0.514995
6.57e-07	1.17046
7.83e-07	1.62928
9.34e-07	22.9318
1.43e-06	23.4562
1.82e-06	23.7839
9.89e-06	24.4394
0.000112	24.5705
0.000962	24.7671
0.010931	25.6192
0.104107	25.6192
