Adsorption isotherm of Methane on Carbon Black
DOI: 10.1021/jp052448y
Adsorbate Methane: InChIKey VNWKTOKETHGBQD-UHFFFAOYSA-N
Temperature: 143 K
Tabular data in the source: 0
pressure (bar)	uptake (micromoles/m2)
0.00121375	1.02e-07
0.00171746	1.43e-07
0.00228784	1.96e-07
0.00309398	2.62e-07
0.00405976	3.55e-07
0.00516862	4.47e-07
0.00709613	6.62e-07
0.00974246	9.32e-07
0.0131753	1.29e-06
0.0157912	1.65e-06
0.0216802	2.45e-06
0.0263799	3.18e-06
0.0330821	3.97e-06
0.041487	4.76e-06
0.0578248	5.94e-06
0.0830663	6.9e-06
0.132623	7.56e-06
0.242551	8.44e-06
0.478367	9.15e-06
