Adsorption isotherm of Methane on Carbon Black
DOI: 10.1021/jp052448y
Adsorbate Methane: InChIKey VNWKTOKETHGBQD-UHFFFAOYSA-N
Temperature: 113 K
Tabular data in the source: 0
pressure (bar)	uptake (kmol/m3)
0.000513	0.727945
0.00106707	1.98601
0.00202224	6.02049
0.00513721	9.10058
0.00999856	9.88145
0.024405	10.5322
0.0535485	11.0527
0.0975071	11.5733
0.120666	11.8336
0.153355	12.2241
0.177552	12.441
0.189778	12.8314
0.197515	16.085
0.202847	19.9893
0.202847	22.679
0.354899	24.3275
0.501757	25.4988
0.789144	26.1061
1.00293	26.3664
