Adsorption isotherm of Methane on Carbon Black
DOI: 10.1021/jp052448y
Adsorbate Methane: InChIKey VNWKTOKETHGBQD-UHFFFAOYSA-N
Temperature: 113 K
Tabular data in the source: 0
pressure (bar)	uptake (mol/m2)
0.000104	1.16e-07
0.000137	1.51e-07
0.000167	1.9e-07
0.000203	2.33e-07
0.00027	3.02e-07
0.000339	3.88e-07
0.000412	4.7e-07
0.000494	5.81e-07
0.000601	7.25e-07
0.000668	8.43e-07
0.000765	1.04e-06
0.000863	1.35e-06
0.00105061	1.77e-06
0.00124034	2.4e-06
0.00153217	3.35e-06
0.00186431	4.52e-06
0.00220099	5.76e-06
0.0030218	6.7e-06
0.00489794	7.71e-06
0.00805964	8.19e-06
0.0122983	8.61e-06
0.0196353	8.88e-06
0.029513	9.06e-06
0.0464143	9.43e-06
0.0823621	9.72e-06
0.148374	1.01e-05
0.209949	1.03e-05
