Adsorption isotherm of Methane on Carbon Black
DOI: 10.1021/jp052448y
Adsorbate Methane: InChIKey VNWKTOKETHGBQD-UHFFFAOYSA-N
Temperature: 91 K
Tabular data in the source: 0
pressure (bar)	uptake (kmol/m3)
3.87e-07	0.580541
5.71e-07	1.10491
6.57e-07	1.69483
8.41e-07	23.2595
4.4e-06	23.2595
1.02e-05	23.4562
9.09e-05	23.4562
0.000997	25.1604
0.0113228	25.2915
0.111704	25.2259
