Adsorption isotherm of Methane on Carbon Black
DOI: 10.1021/jp052448y
Adsorbate Methane: InChIKey VNWKTOKETHGBQD-UHFFFAOYSA-N
Temperature: 123 K
Tabular data in the source: 0
pressure (bar)	uptake (micromoles/m2)
0.000998	4.56e-07
0.00130889	6.23e-07
0.00174358	9.04e-07
0.00225357	1.26e-06
0.00295701	1.7e-06
0.00338723	2.17e-06
0.00405976	2.99e-06
0.00493981	3.85e-06
0.00610204	5e-06
0.00776872	6.12e-06
0.0103487	6.97e-06
0.017288	7.79e-06
0.0288803	8.44e-06
0.0536217	9.06e-06
0.101073	9.72e-06
0.168847	1e-05
0.26554	1.06e-05
0.37574	1.16e-05
0.485641	1.18e-05
