Adsorption isotherm of Methane on Carbon Black
DOI: 10.1021/jp052448y
Adsorbate Methane: InChIKey VNWKTOKETHGBQD-UHFFFAOYSA-N
Temperature: 273 K
Tabular data in the source: 0
pressure (bar)	uptake (kmol/m3)
0.00970446	-0.112355
0.0533765	0.191315
0.106691	0.292539
0.202195	0.748045
0.527513	1.45661
0.999712	3.07619
2.05221	5.05005
5.07631	9.25083
9.88002	12.0851
21.969	14.6157
54.3421	17.1969
105.766	18.7658
200.442	19.6769
495.809	21.4483
682.551	22.1062
1132.23	22.916
1980.94	24.9911
3286.03	26.307
5168.14	27.6735
7706.56	27.4205
10330.3	27.8254
