Adsorption isotherm of Methane on Carbon Black
DOI: 10.1021/jp052448y
Adsorbate Methane: InChIKey VNWKTOKETHGBQD-UHFFFAOYSA-N
Temperature: 113 K
Tabular data in the source: 0
pressure (bar)	uptake (molecules/pore)
9.02e-06	2.12238
2.03e-05	3.4333
2.88e-05	7.36607
3.69e-05	13.0467
4.89e-05	20.4753
6.04e-05	103.064
6.71e-05	110.492
7.62e-05	117.314
9.52e-05	122.507
0.000119	127.008
0.000162	131.508
0.000191	135.317
0.000316	141.202
0.000406	141.548
0.000494	146.049
0.00069	148.472
0.00102045	151.935
0.00500575	158.512
0.0100554	159.897
0.0551501	160.243
0.107736	160.59
0.499808	160.243
1.03241	160.936
