Adsorption isotherm of Methane on Carbon Black
DOI: 10.1021/jp052448y
Adsorbate Methane: InChIKey VNWKTOKETHGBQD-UHFFFAOYSA-N
Temperature: 113 K
Tabular data in the source: 0
pressure (bar)	uptake (kmol/m3)
4.96e-06	0.866096
8.71e-06	1.43236
2.18e-05	3.04638
3.2e-05	6.47911
4.72e-05	12.1514
5.25e-05	42.7409
6.48e-05	281.949
7.73e-05	18200000000
8.29e-05	6.05e+18
9.55e-05	1.09e+20
0.000136	2.99e+20
0.000146	1.35e+21
0.0002	1.97e+21
0.000207	1.01e+22
0.000316	2.15e+22
0.000434	5.88e+22
0.0017752	7.28e+23
0.00996915	2.9e+24
0.0380045	5.44e+24
0.10931	7.94e+24
0.416711	9e+24
0.970272	6.17e+24
