Adsorption isotherm of Nitrogen on BUCT-COF-4
DOI: 10.1021/jacs.1c06986
Article source: Figure 2a
Adsorbate Nitrogen: InChIKey IJGRMHOSHXDMSA-UHFFFAOYSA-N
Kind: experiment
Temperature: 77 K
Tabular data in the source: 0
pressure (bar)	uptake (cm3(STP)/g)
0.002035	89.5288
0.002035	95.8115
0.006104	101.047
0.008139	105.236
0.008139	108.377
0.050866	126.178
0.08342	131.937
0.122078	135.079
0.158702	136.649
0.195325	138.743
0.22788	139.267
0.264503	139.791
0.299092	139.791
0.333681	140.314
0.36827	140.314
0.42117	139.791
0.457794	140.314
0.494417	140.314
0.524937	140.314
0.563595	140.314
0.600218	140.314
0.636842	139.791
0.671431	139.267
0.70602	139.791
0.738574	140.314
0.756886	140.314
0.78944	140.314
0.844375	141.885
0.862687	142.932
0.897276	145.026
0.933899	149.215
0.968488	158.639
1.00104	183.77
0.954245	171.204
0.919657	162.827
0.883033	159.162
0.84234	157.068
0.809786	156.021
0.773163	154.974
0.740608	154.974
0.703985	154.45
0.665327	155.497
0.632773	155.497
0.596149	155.497
0.56156	156.545
0.529006	157.068
0.490348	151.309
0.474071	148.168
0.435413	147.644
0.382512	148.691
0.349958	148.691
0.313334	149.215
0.276711	149.215
0.244157	149.738
0.22788	149.215
0.191256	148.691
0.156667	148.691
0.120044	146.597
0.085455	143.979
0.052901	138.22
