Adsorption isotherm of Tetrahydrofuran on BUCT-COF-4
DOI: 10.1021/jacs.1c06986
Article source: Figure S11
Adsorbate Tetrahydrofuran: InChIKey WYURNTSHIVDZCO-UHFFFAOYSA-N
Kind: experiment
Temperature: 283 K
Tabular data in the source: 0
pressure (bar)	uptake (cm3(STP)/g)
0	15.3846
0.000157	17.9487
0.000314	20.7692
0.000471	22.3077
0.000471	24.8718
0.000629	26.4103
0.000943	28.2051
0.0011	30.2564
0.001257	32.5641
0.001572	33.5897
0.001886	35.3846
0.002043	36.9231
0.002515	38.2051
0.002829	39.7436
0.003143	40.7692
0.003615	41.7949
0.003929	43.0769
0.004401	44.1026
0.005344	46.1538
0.006129	47.9487
0.007072	49.4872
0.007858	51.0256
0.008958	53.5897
0.009901	55.1282
0.010687	56.1538
0.011473	57.1795
0.013202	60.2564
0.014145	61.4103
0.016109	64.6154
0.017288	66.0256
0.019174	68.2051
0.022632	72.1795
0.023339	73.5897
0.030175	80.5128
0.032533	82.8205
0.039448	88.8462
0.042984	91.4103
0.050764	96.7949
0.053986	98.8462
0.064437	105.256
0.074889	112.179
0.085183	120
0.090998	126.41
0.096184	136.41
0.090134	131.154
0.08259	125.513
0.079211	123.718
0.068523	119.231
0.058465	114.615
0.048092	110.256
0.038112	105
0.036462	104.231
0.028054	98.3333
0.020588	90.7692
0.017052	87.0513
0.014931	84.7436
0.011944	80.2564
0.008723	74.4872
0.005972	67.6923
0.005501	66.0256
0.003536	59.2308
0.002593	53.2051
0.001886	47.3077
0.000864	37.5641
