Adsorption isotherm of Nitrogen on Z-Fe
DOI: 10.1557/jmr.2004.19.3.930
Adsorbate Nitrogen: InChIKey IJGRMHOSHXDMSA-UHFFFAOYSA-N
Temperature: 77 K
Tabular data in the source: 0
pressure (bar)	uptake (cm3(STP)/g)
0.0050302	182.889
0.0157926	197.374
0.0373697	200.214
0.0661352	205.937
0.0913152	205.864
0.121891	205.775
0.148858	211.503
0.177635	211.42
0.201016	211.352
0.231592	211.263
0.267558	214.062
0.307126	213.947
0.328715	210.981
0.353889	213.811
0.411449	210.741
0.472589	216.37
0.544532	216.161
0.569712	216.088
0.638052	218.793
0.670426	218.699
0.715385	221.471
0.745955	224.286
0.772939	221.304
0.807112	221.205
0.837676	226.923
0.871849	226.824
0.906022	226.724
0.936586	232.442
0.96715	238.16
0.990508	249.705
0.997563	319.362
