Adsorption isotherm of Nitrogen on Z-Fe/1.0 M NaOH
DOI: 10.1557/jmr.2004.19.3.930
Adsorbate Nitrogen: InChIKey IJGRMHOSHXDMSA-UHFFFAOYSA-N
Temperature: 77 K
Tabular data in the source: 0
pressure (bar)	uptake (cm3(STP)/g)
0.00329545	150.958
0.00344049	78.3771
0.0266595	159.6
0.0554192	168.226
0.0913964	165.219
0.127362	168.017
0.168735	164.994
0.249648	176.372
0.292819	173.343
0.335985	173.218
0.391735	175.959
0.452886	175.782
0.505045	175.631
0.524823	178.476
0.56619	178.356
0.605753	181.145
0.657912	180.993
0.711869	180.837
0.738842	183.661
0.790994	186.413
0.826966	186.309
0.859328	192.021
0.891691	197.734
0.920463	200.553
0.952819	209.169
0.981573	220.699
0.995904	249.689
0.999362	319.357
