Adsorption isotherm of Nitrogen on Zeolite Na-Y
DOI: 10.1557/jmr.2004.19.3.930
Adsorbate Nitrogen: InChIKey IJGRMHOSHXDMSA-UHFFFAOYSA-N
Temperature: 77 K
Tabular data in the source: 0
pressure (bar)	uptake (cm3(STP)/g)
0	171.207
0.00181818	80.1858
0.00363636	191.796
0.0127273	197.214
0.0472727	202.632
0.0672727	203.715
0.0909091	203.715
0.110909	205.882
0.127273	206.966
0.154545	208.05
0.170909	209.133
0.190909	211.3
0.230909	211.3
0.263636	211.3
0.289091	211.3
0.318182	212.384
0.343636	211.3
0.38	212.384
0.4	211.3
0.452727	213.467
0.52	215.635
0.556364	216.718
0.590909	216.718
0.623636	218.885
0.66	219.969
0.694545	219.969
0.732727	219.969
0.767273	221.053
0.801818	222.136
0.838182	223.22
0.872727	226.471
0.909091	227.554
0.94	226.471
0.956364	235.139
0.974545	238.39
0.981818	250.31
0.992727	266.563
1	291.486
1.00182	333.746
1.00545	316.409
