Adsorption isotherm of Nitrogen on Z-Fe/10.0 M NaOH
DOI: 10.1557/jmr.2004.19.3.930
Adsorbate Nitrogen: InChIKey IJGRMHOSHXDMSA-UHFFFAOYSA-N
Temperature: 77 K
Tabular data in the source: 0
pressure (bar)	uptake (cm3(STP)/g)
0.025151	14.4431
0.0593181	17.2471
0.0880894	20.0668
0.118665	19.9781
0.152832	22.7821
0.183414	19.7901
0.213972	28.411
0.242755	25.4243
0.275123	28.2335
0.300303	28.1604
0.336281	25.1527
0.368649	27.962
0.436977	36.4733
0.508915	39.1677
0.541283	41.9769
0.573646	47.6894
0.607813	50.4934
0.676147	56.1015
0.710308	61.8088
0.744464	70.4193
0.782228	73.2129
0.814596	76.0221
0.879304	96.1569
0.915247	110.569
0.947557	142.41
0.978023	197.483
0.986934	238.102
0.996472	865.172
0.996786	708.396
0.996925	638.719
0.998422	789.682
