Adsorption isotherm of Nitrogen on Z-Fe/2.0 M NaOH
DOI: 10.1557/jmr.2004.19.3.930
Adsorbate Nitrogen: InChIKey IJGRMHOSHXDMSA-UHFFFAOYSA-N
Temperature: 77 K
Tabular data in the source: 0
pressure (bar)	uptake (cm3(STP)/g)
0.0031388	229.346
0.0084939	249.653
0.0318579	258.295
0.0624336	258.206
0.0894122	258.128
0.119976	263.845
0.262046	272.142
0.299816	272.033
0.344775	274.805
0.398732	274.649
0.432899	277.453
0.458073	280.283
0.497642	280.168
0.530004	285.881
0.571377	282.857
0.614531	288.538
0.661288	291.306
0.713441	294.058
0.742212	296.877
0.797957	302.522
0.830325	305.331
0.860883	313.952
0.889661	313.869
0.938176	336.954
0.957931	351.412
0.975841	389.102
0.982966	423.92
0.989986	510.997
0.990044	481.964
0.991669	569.056
0.997006	598.073
