Adsorption isotherm of Water on Sc3(Me-BTC)2(OH)3
DOI: 10.1016/j.egypro.2011.01.090
Adsorbate Water: InChIKey XLYOFNOQVPJJNP-UHFFFAOYSA-N
Temperature: 298 K
Tabular data in the source: 0
pressure (bar)	uptake (mmol/g)
0.00141176	0.129947
0.00235294	0.216578
0.00376471	0.346524
0.00470588	0.433155
0.0052549	0.476417
0.00705882	0.606096
0.00933333	0.888182
0.0113725	1.23588
0.0120784	1.34449
0.0135686	1.56166
0.0140392	1.64861
0.0157647	1.88743
0.0162353	1.97439
0.017098	2.08289
0.0181176	2.19128
0.0185882	2.25642
0.019451	2.3431
0.0201569	2.42989
0.0208627	2.5385
0.0216471	2.62524
0.0224314	2.71198
0.0230588	2.79882
0.0239216	2.88551
0.0247059	2.99406
0.0254118	3.03722
0.0261961	3.12396
0.0270588	3.23246
0.0276863	3.29749
0.0284706	3.38422
0.0297255	3.51428
0.030902	3.62257
0.032	3.73091
