Adsorption isotherm of Hydrogen on Sc3(BTC)2(OH)3
DOI: 10.1016/j.egypro.2011.01.090
Adsorbate Hydrogen: InChIKey UFHFLCQGNIYNRP-UHFFFAOYSA-N
Temperature: 298 K
Tabular data in the source: 0
pressure (bar)	uptake (mmol/g)
0.696694	0.0693494
1.06345	0.0675712
1.43006	0.138521
1.76014	0.136921
2.20024	0.134787
2.56699	0.133009
2.93361	0.203958
3.30023	0.274908
3.66698	0.27313
4.03373	0.271352
4.40048	0.269573
4.7671	0.340523
5.86736	0.335189
6.23397	0.406138
6.60073	0.40436
6.96734	0.47531
7.37077	0.473354
7.59082	0.472287
8.0676	0.469975
8.36087	0.541281
8.83764	0.538969
9.05769	0.537902
9.49766	0.608496
9.82774	0.606896
10.2312	0.60494
10.5979	0.603162
10.9645	0.674111
11.3313	0.672333
11.698	0.670555
12.028	0.741683
12.4314	0.739727
12.7982	0.737948
13.1648	0.808898
13.4949	0.807298
13.8983	0.805342
14.265	0.803563
14.6318	0.801785
14.9619	0.800185
