Adsorption isotherm of Nitrogen on Sc3(BTC)2(OH)3
DOI: 10.1016/j.egypro.2011.01.090
Adsorbate Nitrogen: InChIKey IJGRMHOSHXDMSA-UHFFFAOYSA-N
Temperature: 298 K
Tabular data in the source: 0
pressure (bar)	uptake (mmol/g)
0.256326	0.216939
0.695894	0.505717
1.06198	0.867578
1.35511	1.01161
2.1609	1.58952
2.85706	1.94978
3.26009	2.16601
3.55309	2.38277
3.95625	2.52627
4.35914	2.81523
4.72576	2.88618
5.09211	3.10258
5.49527	3.24608
5.86175	3.38976
6.22824	3.53344
6.63127	3.74967
6.88786	3.82115
7.32769	3.96447
7.76766	4.03507
8.13415	4.17874
8.50076	4.24969
8.90392	4.39319
9.23387	4.46432
9.63703	4.60782
9.96697	4.67895
10.2968	4.8228
10.7733	4.96595
11.1766	5.03672
11.4699	5.10802
11.9464	5.25117
12.313	5.32212
12.6796	5.39307
13.0829	5.46384
13.4495	5.53479
13.7795	5.60592
14.1827	5.67669
14.586	5.74746
14.916	5.81859
14.9527	5.81841
