Adsorption isotherm of Methane on Sc3(Me-BTC)2(OH)3
DOI: 10.1016/j.egypro.2011.01.090
Adsorbate Methane: InChIKey VNWKTOKETHGBQD-UHFFFAOYSA-N
Temperature: 298 K
Tabular data in the source: 0
pressure (bar)	uptake (mmol/g)
0.403342	0.581818
0.770053	1.09091
1.0266	1.52727
1.39332	2.03636
1.7234	2.47273
2.12687	2.98182
2.45709	3.34545
2.89746	3.78182
3.22754	4.21818
3.59465	4.50909
3.99853	4.8
4.40227	5.16364
4.80615	5.45455
5.1734	5.67273
5.50388	5.89091
6.05481	6.18182
6.38516	6.47273
6.82594	6.69091
7.19332	6.83636
7.56056	7.05455
8.075	7.2
8.44238	7.34545
8.80976	7.49091
9.25067	7.63636
9.69158	7.78182
10.0957	7.92727
10.4631	8.07273
10.904	8.21818
11.3818	8.29091
11.6758	8.36364
12.0799	8.50909
12.521	8.58182
12.962	8.65455
13.4398	8.72727
13.8441	8.8
14.1381	8.87273
14.5791	8.94545
14.9836	8.94545
