Adsorption isotherm of Carbon Dioxide on Sc3(Me-BTC)2(OH)3
DOI: 10.1016/j.egypro.2011.01.090
Adsorbate Carbon Dioxide: InChIKey CURLTUGMZLYLDI-UHFFFAOYSA-N
Temperature: 298 K
Tabular data in the source: 0
pressure (bar)	uptake (mmol/g)
0.145321	0.945455
0.254278	1.67273
0.326604	2.32727
0.435561	3.05455
0.544519	3.78182
0.65361	4.43636
0.762701	5.09091
0.908422	5.81818
1.09104	6.47273
1.2738	7.05455
1.49332	7.63636
1.71283	8.21818
1.93235	8.8
2.18877	9.30909
2.51912	9.6
2.84933	9.96364
3.17981	10.1818
3.54706	10.4
3.87741	10.6909
4.24479	10.8364
4.5754	10.9818
4.94278	11.1273
5.27326	11.3455
5.64064	11.4909
5.97126	11.6364
6.33877	11.7091
6.70642	11.7091
7.07393	11.7818
7.40468	11.8545
7.77206	12
8.13957	12.0727
8.47032	12.1455
8.83783	12.2182
9.20535	12.2909
9.57299	12.2909
9.94064	12.2909
10.3083	12.2909
10.6759	12.2909
11.0436	12.2909
11.4111	12.3636
11.7787	12.3636
12.1464	12.3636
12.514	12.3636
12.8817	12.3636
13.2492	12.4364
13.5801	12.4364
13.9476	12.5091
14.3152	12.5091
14.6829	12.5091
