Adsorption isotherm of Carbon Dioxide on CuBTC
DOI: 10.1016/j.egypro.2011.01.090
Adsorbate Carbon Dioxide: InChIKey CURLTUGMZLYLDI-UHFFFAOYSA-N
Temperature: 298 K
Tabular data in the source: 0
pressure (bar)	uptake (mmol/g)
0.148124	0.463768
0.333014	0.927536
0.554801	1.44928
0.73969	1.91304
0.924712	2.43478
1.1096	2.89855
1.33139	3.42029
1.51628	3.88406
1.7013	4.4058
1.88632	4.92754
2.10798	5.3913
2.32963	5.85507
2.55128	6.31884
2.80957	6.72464
3.03122	7.18841
3.25288	7.65217
3.47453	8.11594
3.73282	8.52174
3.99124	8.98551
4.24939	9.33333
4.5808	9.56522
4.91235	9.85507
5.20713	10.1449
5.46555	10.6087
5.72384	11.0145
6.01876	11.3623
6.35004	11.5362
6.71782	11.5942
7.0856	11.6522
7.41701	11.8841
7.74843	12.1159
8.07984	12.3478
8.44789	12.5217
8.77917	12.6957
9.11045	12.8696
9.47863	13.1014
9.80992	13.2754
10.1778	13.3913
10.5459	13.5652
10.8769	13.6232
11.2447	13.6812
11.6125	13.7391
11.9802	13.7971
12.3479	13.7971
12.6789	13.8551
13.0465	13.8551
13.4145	13.971
13.7822	14.029
14.1134	14.1449
14.4813	14.2609
14.8124	14.3768
