Adsorption isotherm of Nitrogen on Sc3(Me-BTC)2(OH)3
DOI: 10.1016/j.egypro.2011.01.090
Adsorbate Nitrogen: InChIKey IJGRMHOSHXDMSA-UHFFFAOYSA-N
Temperature: 298 K
Tabular data in the source: 0
pressure (bar)	uptake (mmol/g)
0.697861	0.363636
1.13864	0.581818
1.35896	0.727273
1.83663	0.872727
2.20388	1.09091
2.53449	1.23636
2.9385	1.45455
3.37941	1.6
3.67326	1.74545
4.04064	1.89091
4.51832	2.03636
4.81203	2.25455
5.17955	2.32727
5.65722	2.47273
5.87767	2.54545
6.35521	2.76364
6.75936	2.90909
7.05321	3.05455
7.49425	3.12727
7.93516	3.27273
8.19238	3.34545
8.63342	3.41818
9.07447	3.49091
9.40521	3.56364
9.6623	3.70909
10.2136	3.78182
10.4709	3.85455
10.8751	3.92727
11.316	4.07273
11.6836	4.14545
12.4553	4.29091
12.8229	4.36364
13.5947	4.50909
13.9254	4.58182
14.3298	4.58182
14.771	4.58182
14.9913	4.72727
