Adsorption isotherm of Water on CuBTC
DOI: 10.1016/j.egypro.2011.01.090
Adsorbate Water: InChIKey XLYOFNOQVPJJNP-UHFFFAOYSA-N
Temperature: 298 K
Tabular data in the source: 0
pressure (bar)	uptake (mmol/g)
0.000470588	0.152406
0.00101961	0.304759
0.0014902	0.478984
0.00203922	0.653155
0.0025098	0.805561
0.00305882	0.979733
0.00360784	1.13209
0.00415686	1.26262
0.00478431	1.41492
0.00541176	1.52358
0.00611765	1.63219
0.00682353	1.71898
0.00752941	1.82759
0.00823529	1.89257
0.00901961	1.93567
0.00980392	1.95695
0.0105882	1.95642
0.0112941	1.97775
0.0116863	1.97749
0.0123137	2.08615
0.0129412	2.21663
0.0135686	2.34711
0.0141961	2.45578
0.0148235	2.60807
0.015451	2.71674
0.0160784	2.84722
0.0167843	2.93401
0.0177255	3.02064
0.0185098	3.06374
0.0192157	3.12872
0.0199216	3.21551
0.0206275	3.3023
0.0213333	3.41091
0.0220392	3.4977
0.0227451	3.60631
0.023451	3.6931
0.0241569	3.80171
0.0248627	3.8885
0.0256471	3.95342
0.0263529	4.0184
0.0271373	4.08332
0.0278431	4.12647
0.0286275	4.16957
0.0293333	4.21273
0.0301176	4.25583
0.030902	4.27711
0.0316078	4.29845
