Adsorption isotherm of Hydrogen on Sc3(Me-BTC)2(OH)3
DOI: 10.1016/j.egypro.2011.01.090
Adsorbate Hydrogen: InChIKey UFHFLCQGNIYNRP-UHFFFAOYSA-N
Temperature: 298 K
Tabular data in the source: 0
pressure (bar)	uptake (mmol/g)
0.772059	0
0.919118	0
1.47059	0
1.8381	0.0727273
2.24251	0.0727273
2.4262	0.145455
2.97781	0.0727273
3.23503	0.145455
3.71297	0.145455
3.93356	0.145455
4.4115	0.145455
4.66872	0.218182
5.10989	0.218182
5.44078	0.218182
5.88195	0.218182
6.2127	0.290909
6.65388	0.290909
7.02139	0.363636
7.31564	0.290909
7.57286	0.363636
8.0508	0.363636
8.30816	0.363636
8.78596	0.436364
9.15361	0.436364
9.52126	0.436364
9.8889	0.436364
10.2564	0.509091
10.6241	0.509091
10.9917	0.509091
11.3594	0.509091
11.7269	0.581818
12.0945	0.581818
13.1975	0.581818
13.565	0.654545
13.9326	0.654545
14.3003	0.654545
14.6679	0.654545
14.9988	0.654545
