Adsorption isotherm of Hydrogen on CuBTC
DOI: 10.1016/j.egypro.2011.01.090
Adsorbate Hydrogen: InChIKey UFHFLCQGNIYNRP-UHFFFAOYSA-N
Temperature: 298 K
Tabular data in the source: 0
pressure (bar)	uptake (mmol/g)
0.845588	0
1.02941	0
1.61778	0.057971
1.76484	0.057971
2.13262	0.115942
2.50027	0.115942
2.86791	0.115942
3.23556	0.115942
3.60321	0.115942
3.97085	0.115942
4.37527	0.115942
4.74291	0.115942
5.84599	0.173913
6.21377	0.231884
6.58142	0.231884
6.94906	0.231884
7.35347	0.231884
7.61083	0.231884
8.01524	0.231884
8.34612	0.231884
8.8242	0.289855
9.00789	0.231884
9.55949	0.289855
9.74331	0.289855
10.2214	0.347826
10.5523	0.347826
10.9567	0.347826
11.3243	0.347826
11.692	0.347826
12.0596	0.347826
12.4274	0.405797
12.7583	0.405797
13.1627	0.405797
13.5303	0.405797
13.898	0.405797
14.2656	0.405797
