Adsorption isotherm of Methane on CuBTC
DOI: 10.1016/j.egypro.2011.01.090
Adsorbate Methane: InChIKey VNWKTOKETHGBQD-UHFFFAOYSA-N
Temperature: 298 K
Tabular data in the source: 0
pressure (bar)	uptake (mmol/g)
0.478474	0.231884
0.92005	0.405797
1.32486	0.57971
1.72954	0.695652
2.09759	0.869565
2.57593	1.04348
2.90694	1.10145
3.34865	1.33333
3.82686	1.44928
4.15788	1.50725
4.63622	1.68116
5.00426	1.85507
5.37204	1.91304
5.77672	2.02899
6.18153	2.2029
6.62298	2.31884
7.10118	2.43478
7.46923	2.6087
7.91067	2.72464
8.27859	2.84058
8.68326	2.95652
9.16147	3.07246
9.52939	3.18841
9.93406	3.30435
10.3756	3.47826
10.7434	3.53623
11.2216	3.65217
11.6264	3.82609
12.031	3.88406
12.3989	4
12.8403	4.11594
13.2084	4.28986
13.6497	4.34783
14.0913	4.52174
14.4958	4.57971
14.9006	4.75362
