Adsorption isotherm of Water on Sc3(BTC)2(OH)3
DOI: 10.1016/j.egypro.2011.01.090
Adsorbate Water: InChIKey XLYOFNOQVPJJNP-UHFFFAOYSA-N
Temperature: 298 K
Tabular data in the source: 0
pressure (bar)	uptake (mmol/g)
0.000784314	0.130374
0.00164706	0.217059
0.00258824	0.369144
0.00337255	0.477701
0.00415686	0.586257
0.00494118	0.694813
0.00572549	0.781551
0.00666667	0.846364
0.00752941	0.998503
0.00823529	1.10711
0.00894118	1.30299
0.00964706	1.43342
0.0102745	1.60754
0.0107451	1.78176
0.0115294	1.93396
0.0128627	2.21668
0.0137255	2.36882
0.0167059	2.93406
0.0176471	3.06433
0.0183529	3.21658
0.0191373	3.32513
0.0198431	3.43374
0.0207843	3.56401
0.0214902	3.67262
0.0222745	3.78118
0.0230588	3.86791
0.024	3.99818
0.024549	4.06326
0.0255686	4.17166
0.0263529	4.23658
0.0272941	4.30139
0.028	4.36636
0.0289412	4.47481
0.0298039	4.58332
0.0305882	4.67005
0.031451	4.75674
0.032	4.82182
