Adsorption isotherm of Nitrogen on CuBTC
DOI: 10.1016/j.egypro.2011.01.090
Adsorbate Nitrogen: InChIKey IJGRMHOSHXDMSA-UHFFFAOYSA-N
Temperature: 298 K
Tabular data in the source: 0
pressure (bar)	uptake (mmol/g)
1.10361	0.289855
1.47139	0.347826
2.24385	0.521739
2.61163	0.57971
3.45748	0.695652
3.6782	0.753623
4.56082	0.869565
4.81831	0.927536
5.70106	1.10145
6.06884	1.15942
6.84117	1.27536
7.20895	1.33333
7.98127	1.44928
8.34905	1.50725
9.12138	1.62319
9.48902	1.62319
9.89357	1.68116
10.2981	1.73913
10.5925	1.85507
11.4382	1.91304
11.806	1.97101
12.5783	2.08696
12.946	2.08696
13.7551	2.2029
14.0127	2.31884
14.8952	2.37681
15.0422	2.37681
