Adsorption isotherm of Carbon Dioxide on Sc3(BTC)2(OH)3
DOI: 10.1016/j.egypro.2011.01.090
Adsorbate Carbon Dioxide: InChIKey CURLTUGMZLYLDI-UHFFFAOYSA-N
Temperature: 298 K
Tabular data in the source: 0
pressure (bar)	uptake (mmol/g)
0.1443	1.30839
0.216317	2.03531
0.288333	2.76224
0.360483	3.41643
0.395825	4.14354
0.467841	4.87046
0.576533	5.5972
0.648683	6.2514
0.757375	6.97815
0.902875	7.63199
1.08505	8.28565
1.26736	8.86658
1.48621	9.52007
1.70519	10.1008
1.96099	10.6087
2.1801	11.1167
2.47257	11.6244
2.76517	12.0593
3.09472	12.3486
3.42426	12.6379
3.75393	12.8545
4.12029	13.0709
4.44996	13.2875
4.81631	13.5039
5.1828	13.6476
5.51261	13.7915
5.87923	13.8624
6.24584	13.9334
6.61246	14.0043
6.9424	14.0754
7.30902	14.1464
7.67564	14.2173
8.04239	14.2156
8.40901	14.2865
8.77576	14.2847
9.1057	14.3559
9.47246	14.3541
9.83921	14.3523
10.2058	14.4232
10.5723	14.5669
10.9021	14.7108
11.2687	14.7817
11.6356	14.7072
12.0025	14.6327
12.3693	14.6309
12.6992	14.7021
13.066	14.7003
13.4326	14.7712
13.7993	14.7695
14.1659	14.8404
14.5327	14.8386
14.8996	14.7641
