Adsorption isotherm of Methane on Sc3(BTC)2(OH)3
DOI: 10.1016/j.egypro.2011.01.090
Adsorbate Methane: InChIKey VNWKTOKETHGBQD-UHFFFAOYSA-N
Temperature: 298 K
Tabular data in the source: 0
pressure (bar)	uptake (mmol/g)
0.40196	0.798051
0.657619	1.37863
0.913278	1.95921
1.31577	2.46635
1.64505	2.90111
1.97432	3.33588
2.30347	3.84338
2.66942	4.27797
3.10859	4.78493
3.43813	5.07424
3.84089	5.43592
4.20711	5.72506
4.60973	6.15947
4.97595	6.4486
5.34243	6.59228
5.70865	6.88141
6.18503	7.09728
6.51471	7.31387
6.95441	7.52992
7.39411	7.74597
7.76059	7.88965
8.16375	8.03315
8.64026	8.17629
9.04329	8.39252
9.44645	8.53602
9.88628	8.67934
10.2529	8.75029
10.5828	8.82142
11.1695	8.8913
11.3894	8.96296
11.8659	9.1061
12.3059	9.1767
12.7826	9.24711
13.1858	9.31789
13.6255	9.53394
13.919	9.53251
14.3589	9.60311
14.8724	9.60062
