Adsorption isotherm of Carbon Dioxide on MIL-101(Al)-NH2
DOI: 10.1021/Cm103644b
Adsorbate Carbon Dioxide: InChIKey CURLTUGMZLYLDI-UHFFFAOYSA-N
Temperature: 283 K
Tabular data in the source: 0
pressure (bar)	uptake (mmol/g)
0.140695	0.92219
0.280399	1.5562
0.832479	2.13256
1.03976	2.42075
1.45451	3.05476
2.00659	3.63112
2.42095	4.14986
2.83511	4.61095
3.31842	5.18732
4.49115	6.28242
5.52516	7.0317
6.62872	8.01153
7.86902	8.76081
9.04075	9.56772
10.2119	10.2017
11.9345	11.2392
13.7255	12.1614
15.5159	12.9107
17.513	13.7752
19.3034	14.5245
21.2307	15.1009
23.7777	15.9078
26.3237	16.4265
28.938	16.83
31.5528	17.3487
