Adsorption isotherm of Nitrogen on MIL-101(Al)-NH2
DOI: 10.1021/Cm103644b
Adsorbate Nitrogen: InChIKey IJGRMHOSHXDMSA-UHFFFAOYSA-N
Temperature: 298 K
Tabular data in the source: 0
pressure (bar)	uptake (mmol/g)
3.64599	0.461095
5.02202	0.691643
6.60415	0.864553
8.18628	1.03746
9.49276	1.03746
10.9372	1.15274
13.0696	1.38329
15.0641	1.49856
17.1276	1.67147
19.1908	1.78674
21.2539	1.84438
24.0048	1.95965
26.7563	2.24784
29.5071	2.36311
32.258	2.47839
