Adsorption isotherm of Carbon Dioxide on MIL-101(Al)-NH2
DOI: 10.1021/Cm103644b
Adsorbate Carbon Dioxide: InChIKey CURLTUGMZLYLDI-UHFFFAOYSA-N
Temperature: 283 K
Tabular data in the source: 0
pressure (bar)	uptake (mmol/g)
0.62322	1.26801
1.17629	2.13256
1.72936	2.99712
2.41976	3.80403
2.97164	4.32277
3.38679	5.07205
3.86931	5.41787
4.21491	5.9366
4.69743	6.28242
5.11159	6.74352
5.59412	7.08934
6.00828	7.55043
6.491	7.95389
6.836	8.29971
7.31853	8.64553
7.87001	9.04899
8.35254	9.39481
8.83447	9.56772
9.04174	9.85591
9.59303	10.2017
10.0754	10.4899
10.6266	10.8357
11.1777	11.1239
11.8667	11.5274
12.4866	11.8156
13.0375	12.0461
13.5884	12.2767
13.7951	12.3919
14.4147	12.6225
15.0346	12.9107
15.5849	12.9683
15.7921	13.2565
16.4116	13.4294
17.0312	13.6599
17.6505	13.7752
18.2016	14.0634
18.8898	14.2363
19.5095	14.4669
20.1289	14.6398
20.7484	14.8127
21.3682	15.1009
21.9873	15.1585
22.6067	15.3314
23.295	15.5043
24.0519	15.6772
24.6712	15.7925
25.3594	15.9654
26.0474	16.0807
26.392	16.3112
26.9421	16.3112
27.6302	16.4265
28.2494	16.5418
28.8001	16.7147
29.3502	16.7147
29.9695	16.83
30.6575	16.9452
31.2767	17.0605
31.8276	17.2911
