Adsorption isotherm of Nitrogen on MIL-101(Al)-NH2
DOI: 10.1021/Cm103644b
Adsorbate Nitrogen: InChIKey IJGRMHOSHXDMSA-UHFFFAOYSA-N
Temperature: 77 K
Tabular data in the source: 0
pressure (bar)	uptake (cm3(STP)/g)
0.00562656	220.752
0.0112531	242.598
0.0150042	260.076
0.0187552	277.553
0.0281328	303.762
0.0450125	323.396
0.0562656	336.485
0.0618922	351.773
0.0712698	360.495
0.0768964	371.412
0.086274	380.134
0.0956516	395.413
0.116282	410.667
0.12566	419.389
0.133162	425.93
0.144415	432.462
0.155668	434.622
0.170672	443.332
0.174423	452.067
0.189428	462.962
0.208183	473.849
0.225063	480.368
0.255071	482.486
0.273826	486.816
0.300083	488.942
0.324465	491.073
0.350722	493.2
0.399486	497.462
0.421992	499.597
0.44825	499.538
0.474507	503.85
0.498889	505.981
0.52327	508.112
0.549528	510.239
0.568283	508.011
0.592665	510.142
0.617046	510.087
0.641428	512.218
0.663935	516.539
0.688316	516.484
0.714574	518.611
0.738955	522.928
0.763337	525.059
0.783968	529.384
0.812101	531.506
0.827105	531.472
0.851487	540.161
0.873993	542.296
0.90025	555.352
0.922756	570.602
0.943387	598.97
0.956516	647.028
0.965893	712.581
