Adsorption isotherm of Methane on MIL-101(Al)-NH2
DOI: 10.1021/Cm103644b
Adsorbate Methane: InChIKey VNWKTOKETHGBQD-UHFFFAOYSA-N
Temperature: 283 K
Tabular data in the source: 0
pressure (bar)	uptake (mmol/g)
1.17134	0.691643
1.72203	0.864553
2.89238	1.26801
3.51183	1.44092
4.68218	1.84438
6.05841	2.13256
7.36589	2.42075
8.6046	2.70893
10.1184	2.99712
11.3569	3.22767
13.2836	3.63112
15.2787	3.91931
17.274	4.26513
19.2005	4.61095
21.2642	4.8415
23.8779	5.07205
26.5609	5.41787
29.2434	5.64841
31.8568	5.76369
