Adsorption isotherm of Nitrogen on NH2-MIL-101(Al)
DOI: 10.1021/Cm103644b
Adsorbate Nitrogen: InChIKey IJGRMHOSHXDMSA-UHFFFAOYSA-N
Temperature: 283 K
Tabular data in the source: 0
pressure (bar)	uptake (mmol/g)
2.27034	0.345821
2.82124	0.576369
5.02242	0.806916
6.53579	0.979827
7.91123	1.03746
9.42479	1.26801
10.8004	1.38329
12.8641	1.61383
14.7902	1.84438
16.9221	1.90202
18.9168	2.07493
20.98	2.1902
23.7311	2.36311
26.3447	2.53602
29.0956	2.6513
31.8464	2.76657
