Adsorption isotherm of Carbon Dioxide on MIL-101(Al)-NH2
DOI: 10.1021/Cm103644b
Adsorbate Carbon Dioxide: InChIKey CURLTUGMZLYLDI-UHFFFAOYSA-N
Temperature: 298 K
Tabular data in the source: 0
pressure (bar)	uptake (mmol/g)
0.485101	1.0951
0.828318	0.92219
1.38139	1.78674
2.20911	2.53602
2.55451	2.99712
3.1054	3.22767
3.31327	3.68876
3.86436	3.97695
4.34748	4.49568
4.89877	4.8415
5.38129	5.18732
5.86362	5.4755
6.34634	5.87896
6.96659	6.28242
7.79352	6.80115
8.62025	7.26225
9.44699	7.72334
10.0666	7.95389
10.6179	8.29971
11.2376	8.53026
11.8574	8.81844
12.4771	9.04899
13.0967	9.27954
13.7166	9.56772
14.405	9.79827
15.0247	10.0288
15.6443	10.2594
16.3327	10.4899
16.9522	10.6628
17.6404	10.8357
20.2559	11.585
20.9442	11.7579
21.5634	11.8732
22.1827	11.9885
22.8709	12.1614
23.4903	12.3343
24.1784	12.4496
24.7293	12.6801
25.3483	12.7378
26.0361	12.7954
26.6556	12.9683
27.6189	13.1412
28.3069	13.2565
28.9261	13.3718
29.5452	13.4294
29.8898	13.6599
30.5085	13.6023
31.1277	13.7176
31.8157	13.8329
32.4348	13.8905
