Adsorption isotherm of Methane on MIL-101(Al)-NH2
DOI: 10.1021/Cm103644b
Adsorbate Methane: InChIKey VNWKTOKETHGBQD-UHFFFAOYSA-N
Temperature: 298 K
Tabular data in the source: 0
pressure (bar)	uptake (mmol/g)
1.85876	0.634006
2.40926	0.74928
2.95995	0.92219
3.51044	1.03746
4.88648	1.26801
6.19396	1.5562
7.50143	1.84438
8.94623	2.07493
10.2531	2.1902
12.2484	2.53602
14.2433	2.76657
16.307	2.99712
20.297	3.51585
22.9109	3.80403
25.662	3.97695
28.3443	4.14986
31.0956	4.3804
