Adsorption isotherm of Carbon Dioxide on MIL-101(Al)-NH2
DOI: 10.1021/Cm103644b
Adsorbate Carbon Dioxide: InChIKey CURLTUGMZLYLDI-UHFFFAOYSA-N
Temperature: 298 K
Tabular data in the source: 0
pressure (bar)	uptake (mmol/g)
0.485101	1.0951
1.58986	2.42075
2.00401	2.88184
2.76198	3.34294
3.24471	3.7464
4.41624	4.49568
5.58798	5.30259
6.69055	5.99424
7.99981	6.80115
9.17075	7.37752
10.4105	7.95389
12.3386	8.76081
14.1979	9.56772
16.0569	10.2594
17.9842	10.8357
19.9803	11.4121
21.9764	11.9885
24.5919	12.7378
27.2067	13.2565
29.89	13.7176
32.6423	14.2363
