Adsorption isotherm of Water on Na-ZSM-5
DOI: 10.1016/S1872-1508(06)60001-6
Adsorbate Water: InChIKey XLYOFNOQVPJJNP-UHFFFAOYSA-N
Temperature: 298 K
Tabular data in the source: 0
pressure (bar)	uptake (mg/g)
0.000211	0.0170844
0.000211	0.760746
0.00270377	0.963563
0.0100981	1.28469
0.0299573	1.52131
