Adsorption isotherm of Water on Na-ZSM-5
DOI: 10.1016/S1872-1508(06)60001-6
Adsorbate Water: InChIKey XLYOFNOQVPJJNP-UHFFFAOYSA-N
Temperature: 298 K
Tabular data in the source: 0
pressure (bar)	uptake (mg/g)
0.000198	0.300468
0.00131307	21.8098
0.00195663	34.9671
0.00255729	45.8362
0.00384442	50.9847
0.00513155	54.6459
0.00882132	64.7141
0.0121249	71.5788
0.0140556	74.5535
0.0181315	77.5282
0.0199764	78.5579
0.0250391	80.7317
0.0299302	81.647
