Adsorption isotherm of Water on Na-ZSM-5
DOI: 10.1016/S1872-1508(06)60001-6
Adsorbate Water: InChIKey XLYOFNOQVPJJNP-UHFFFAOYSA-N
Temperature: 298 K
Tabular data in the source: 0
pressure (bar)	uptake (mg/g)
0.000253	0.000183
0.000253	2.14666
0.00274602	2.70441
0.0101404	2.97483
0.0300418	3.39737
