Adsorption isotherm of Water on Na-ZSM-5
DOI: 10.1016/S1872-1508(06)60001-6
Adsorbate Water: InChIKey XLYOFNOQVPJJNP-UHFFFAOYSA-N
Temperature: 298 K
Tabular data in the source: 0
pressure (bar)	uptake (mg/g)
0.000198	0.529291
0.00109855	45.9506
0.00500284	56.3621
0.0100655	61.9682
0.0200193	70.2059
0.030016	73.1806
