Adsorption isotherm of Water on Na-ZSM-5
DOI: 10.1016/S1872-1508(06)60001-6
Adsorbate Water: InChIKey XLYOFNOQVPJJNP-UHFFFAOYSA-N
Temperature: 298 K
Tabular data in the source: 0
pressure (bar)	uptake (mg/g)
0.000211	0.0170844
0.000295	7.3692
0.00038	8.19737
0.00270377	9.88751
0.0100981	10.665
0.0299995	11.6115
