Adsorption isotherm of Water on Na-ZSM-5
DOI: 10.1016/S1872-1508(06)60001-6
Adsorbate Water: InChIKey XLYOFNOQVPJJNP-UHFFFAOYSA-N
Temperature: 298 K
Tabular data in the source: 0
pressure (bar)	uptake (mg/g)
0.000253	3.92131
0.00278828	4.39455
0.0101826	5.07061
0.029915	5.66215
