Adsorption isotherm of Hydrogen on MOF-74
DOI: 10.1021/Ja056639q
Adsorbate Hydrogen: InChIKey UFHFLCQGNIYNRP-UHFFFAOYSA-N
Temperature: 77 K
Tabular data in the source: 0
pressure (bar)	uptake (mmol/g)
0.00512977	1.92655
0.00530076	1.06479
0.0131865	2.99148
0.0213036	3.75225
0.0349729	4.31052
0.0678738	5.17385
0.0953734	5.47931
0.136633	5.88681
0.166909	6.09102
0.202686	6.34618
0.232972	6.4997
0.26877	6.65348
0.310069	6.85821
0.367895	7.11442
0.403692	7.2682
0.433988	7.37102
0.48081	7.52533
0.533144	7.67989
0.574453	7.83393
0.624041	7.93767
0.676365	8.14293
0.706671	8.19506
0.756248	8.3495
0.805826	8.50393
0.855404	8.65836
0.904991	8.7621
0.960091	8.86611
