Adsorption isotherm of Hydrogen on IRMOF-3
DOI: 10.1021/Ja056639q
Adsorbate Hydrogen: InChIKey UFHFLCQGNIYNRP-UHFFFAOYSA-N
Temperature: 77 K
Tabular data in the source: 0
pressure (bar)	uptake (mmol/g)
0.155639	1.8718
0.215761	2.44741
0.265005	2.76356
0.292334	3.02257
0.33062	3.31015
0.363433	3.56902
0.401729	3.82774
0.43182	4.02896
0.481074	4.31624
0.502959	4.45996
0.538544	4.63217
0.574099	4.89096
0.626104	5.14931
0.669895	5.37902
0.689048	5.49395
0.730106	5.69487
0.771164	5.89579
0.806739	6.09686
0.856013	6.32642
0.905287	6.55598
0.951829	6.75675
0.984682	6.90017
1.0285	7.0433
