Adsorption isotherm of Hydrogen on IRMOF-1
DOI: 10.1021/Ja056639q
Adsorbate Hydrogen: InChIKey UFHFLCQGNIYNRP-UHFFFAOYSA-N
Temperature: 77 K
Tabular data in the source: 0
pressure (bar)	uptake (mmol/g)
0.0436805	0.547191
0.101021	1.23832
0.142019	1.61241
0.191213	2.07287
0.232212	2.44696
0.267766	2.70576
0.306063	2.96448
0.333412	3.16577
0.404551	3.59677
0.53315	4.37256
0.598815	4.77485
0.667262	5.06161
0.795911	5.69309
0.935547	6.26654
1.00399	6.55331
