Adsorption isotherm of Hydrogen on IRMOF-6
DOI: 10.1021/Ja056639q
Adsorbate Hydrogen: InChIKey UFHFLCQGNIYNRP-UHFFFAOYSA-N
Temperature: 77 K
Tabular data in the source: 0
pressure (bar)	uptake (mmol/g)
0.0136495	0.172801
0.0709597	0.950518
0.136505	1.69915
0.193865	2.33255
0.223946	2.56264
0.338786	3.4831
0.368867	3.71318
0.40168	3.97205
0.470067	4.43199
0.50291	4.60427
0.538474	4.8342
0.579522	5.06399
0.626045	5.32249
0.661619	5.52354
0.699936	5.72455
0.765611	6.09798
0.803927	6.29899
0.847728	6.49979
0.886054	6.67193
0.929854	6.87278
0.976386	7.10241
1.02567	7.30311
