Adsorption isotherm of Hydrogen on CuBTC
DOI: 10.1021/Ja056639q
Adsorbate Hydrogen: InChIKey UFHFLCQGNIYNRP-UHFFFAOYSA-N
Temperature: 77 K
Tabular data in the source: 0
pressure (bar)	uptake (mmol/g)
0.00814728	0.608696
0.0162946	1.21739
0.0189801	1.57237
0.0298935	2.1305
0.0490245	2.94249
0.0654297	3.60227
0.0845808	4.31287
0.106508	4.92222
0.125679	5.53144
0.177862	6.44639
0.19983	6.85297
0.219061	7.15804
0.235547	7.41228
0.268528	7.87008
0.309778	8.32828
0.337287	8.58304
0.348281	8.73564
0.386804	9.04163
0.419816	9.34735
0.472089	9.80607
0.502365	10.0103
0.529875	10.265
0.540889	10.3163
0.571164	10.5205
0.61521	10.776
0.662001	11.0824
0.703301	11.2871
0.755615	11.5431
0.796914	11.7478
0.829956	11.9015
0.890537	12.1578
0.929091	12.3117
0.984171	12.5171
1.02271	12.7217
