Adsorption isotherm of Hydrogen on IRMOF-2
DOI: 10.1021/Ja056639q
Adsorbate Hydrogen: InChIKey UFHFLCQGNIYNRP-UHFFFAOYSA-N
Temperature: 77 K
Tabular data in the source: 0
pressure (bar)	uptake (mmol/g)
0.032743	0.460902
0.0628039	0.748706
0.0901528	0.949998
0.122956	1.23773
0.142089	1.41038
0.174892	1.69811
0.210446	1.9569
0.237795	2.1582
0.270618	2.3882
0.3308	2.79064
0.371858	2.99156
0.410164	3.22142
0.453955	3.45113
0.503209	3.73841
0.544267	3.93933
0.590799	4.16897
0.645557	4.39838
0.681131	4.59945
0.719458	4.77158
0.755042	4.94379
0.807068	5.14441
0.864558	5.40261
0.924799	5.63188
0.963145	5.74629
1.02065	5.97562
