Adsorption isotherm of Hydrogen on IRMOF-9
DOI: 10.1021/Ja056639q
Adsorbate Hydrogen: InChIKey UFHFLCQGNIYNRP-UHFFFAOYSA-N
Temperature: 77 K
Tabular data in the source: 0
pressure (bar)	uptake (mmol/g)
0.0111392	0.590553
0.0167088	0.918658
0.0362024	1.41047
0.0501264	1.77115
0.0668352	2.09891
0.0863288	2.39376
0.114177	2.68835
0.13367	2.91754
0.153164	3.11391
0.178227	3.3101
0.200506	3.50638
0.225569	3.66975
0.267341	3.89825
0.295189	4.06153
0.375948	4.38732
0.406581	4.51769
0.439999	4.61515
0.473416	4.74543
0.531897	4.90777
0.559745	4.97256
0.609872	5.10233
0.671137	5.19893
0.710124	5.29621
0.763036	5.39306
0.802023	5.49035
0.829871	5.52232
0.885567	5.58626
0.963541	5.71517
1.01367	5.81211
