Adsorption isotherm of Hydrogen on IRMOF-20
DOI: 10.1021/Ja056639q
Adsorbate Hydrogen: InChIKey UFHFLCQGNIYNRP-UHFFFAOYSA-N
Temperature: 77 K
Tabular data in the source: 0
pressure (bar)	uptake (mmol/g)
0.0354749	0.48969
0.062754	0.893016
0.111938	1.38233
0.133803	1.58378
0.207615	2.21674
0.289642	2.87834
0.344349	3.25206
0.47567	4.0855
0.612505	4.8322
0.672716	5.14805
0.716506	5.37776
0.804087	5.83718
0.872534	6.12394
0.930034	6.35328
0.965618	6.52549
0.998471	6.66891
