Adsorption isotherm of Hydrogen on IRMOF-13
DOI: 10.1021/Ja056639q
Adsorbate Hydrogen: InChIKey UFHFLCQGNIYNRP-UHFFFAOYSA-N
Temperature: 77 K
Tabular data in the source: 0
pressure (bar)	uptake (mmol/g)
0.0055696	0.65638
0.0111392	1.08297
0.0306328	1.64044
0.0501264	2.03377
0.0668352	2.3287
0.0779744	2.52532
0.0974681	2.82017
0.111392	3.01671
0.130886	3.27873
0.14481	3.40961
0.175442	3.8026
0.197721	4.03171
0.239493	4.42435
0.270126	4.71886
0.297974	4.94779
0.331391	5.20938
0.370379	5.47081
0.403796	5.69957
0.420505	5.83037
0.467847	6.09153
0.498479	6.28755
0.540251	6.48323
0.573669	6.712
0.612656	6.90776
0.665568	7.13593
0.710124	7.36435
0.754681	7.55994
0.796453	7.75562
0.84101	7.91839
0.902276	8.11347
0.924554	8.21126
0.966326	8.37412
1.02481	8.56928
