Adsorption isotherm of Methane on UiO-66-NO2-(OH)2
DOI: 10.1021/acs.iecr.5b04061
Article source: Figure 6C
Adsorbate Methane: InChIKey VNWKTOKETHGBQD-UHFFFAOYSA-N
Kind: experiment
Temperature: 298 K
Tabular data in the source: 0
pressure (bar)	uptake (mmol/g)
0.0641	0.05616
0.0821	0.07959
0.1064	0.10398
0.1391	0.12001
0.2686	0.20471
0.5461	0.35803
1.0792	0.6223
1.5778	0.83039
2.1005	1.00218
2.6079	1.15568
3.1185	1.28766
3.647	1.4087
4.1563	1.51564
4.6739	1.61774
5.1863	1.70701
5.7071	1.7937
6.2304	1.86723
6.7434	1.94043
7.2578	2.00915
7.7798	2.06951
8.2928	2.12955
