Adsorption isotherm of Methane on UiO-66-NO2
DOI: 10.1021/acs.iecr.5b04061
Article source: Figure 6C
Adsorbate Methane: InChIKey VNWKTOKETHGBQD-UHFFFAOYSA-N
Kind: experiment
Temperature: 298 K
Tabular data in the source: 0
pressure (bar)	uptake (mmol/g)
0.0513	0.04685
0.0859	0.06835
0.1237	0.08213
0.1692	0.09912
0.2666	0.15622
0.5441	0.28481
1.072	0.48261
1.5737	0.63675
2.0983	0.76744
2.6037	0.87469
3.1252	0.97359
3.6415	1.06349
4.1558	1.13253
4.672	1.19771
5.1915	1.2616
5.7084	1.3165
6.2233	1.37269
6.7441	1.41796
7.2616	1.4613
7.7835	1.50367
8.3004	1.53674
