Adsorption isotherm of Nitrogen on UiO-66-NO2-(OH)2
DOI: 10.1021/acs.iecr.5b04061
Article source: Figure 6A
Adsorbate Nitrogen: InChIKey IJGRMHOSHXDMSA-UHFFFAOYSA-N
Kind: experiment
Temperature: 298 K
Tabular data in the source: 0
pressure (bar)	uptake (mmol/g)
0.0423	0.1037
0.0661	0.4431
0.0669	0.4404
0.0768	0.5079
0.0876	0.583
0.1121	0.6556
0.1456	0.7489
0.2888	1.1765
0.5612	1.7883
1.1021	2.5403
1.6106	3.0746
2.155	3.4769
2.646	3.7884
3.1676	4.0494
3.6966	4.2936
4.2225	4.4951
4.7347	4.6888
5.2815	4.8644
5.7932	5.014
6.3109	5.152
6.8336	5.2873
7.35	5.415
7.8738	5.5348
8.3939	5.6598
