Adsorption isotherm of Nitrogen on UiO-66-NO2
DOI: 10.1021/acs.iecr.5b04061
Article source: Figure 6A
Adsorbate Nitrogen: InChIKey IJGRMHOSHXDMSA-UHFFFAOYSA-N
Kind: experiment
Temperature: 298 K
Tabular data in the source: 0
pressure (bar)	uptake (mmol/g)
0.0522	0.092
0.0824	0.346
0.148	0.5183
0.2801	0.8488
0.5524	1.3323
1.0881	1.9638
1.6094	2.4114
2.1318	2.7476
2.6687	3.0345
3.1613	3.2619
3.6923	3.4698
4.2081	3.657
4.7238	3.8312
5.2729	3.9835
5.7819	4.1215
6.3095	4.2426
6.8233	4.3676
7.342	4.4758
7.8707	4.5853
8.378	4.6818
