Adsorption isotherm of Nitrogen on UiO-66-(OH)2
DOI: 10.1021/acs.iecr.5b04061
Article source: Figure 4A
Adsorbate Nitrogen: InChIKey IJGRMHOSHXDMSA-UHFFFAOYSA-N
Kind: experiment
Temperature: 77 K
Tabular data in the source: 0
pressure (bar)	uptake (cm3(STP)/g)
0.005228	59.176
0.009433	64.899
0.010163	67.714
0.011166	70.352
0.012108	72.398
0.014084	76.074
0.020265	81.443
0.031705	86.373
0.054381	91.552
0.066267	93.816
0.097323	98.203
0.104304	98.981
0.112592	99.967
0.117446	101.009
0.148279	107.233
0.167166	106.541
0.185151	112.189
0.203349	110.519
0.221253	116.671
0.240333	113.846
0.257173	120.885
0.275452	117.2
0.291857	125.484
0.316985	120.147
0.329093	129.848
0.344718	126.931
0.365966	134.863
0.384123	131.386
0.400244	139.758
0.420326	134.208
0.439203	145.398
0.453946	138.272
0.475579	149.79
0.49094	141.747
0.509229	158.18
0.527346	143.68
0.542656	159.163
0.56281	146.235
0.58045	162.016
0.599196	148.08
0.614111	165.191
0.6355	150.428
0.651185	168.015
0.670741	152.301
0.686538	170.925
0.70733	154.561
0.723349	174.014
0.742591	156.642
0.759157	177.044
0.772948	166.48
0.794945	180.043
0.813437	170.373
0.830754	183.102
0.850076	173.196
0.866785	186.902
0.884881	176.254
0.899715	189.958
0.922017	179.67
0.945535	184.731
0.956751	183.498
0.986166	192.535
0.989297	190.938
1.0211	211.534
1.02204	212.126
