Adsorption isotherm of Methane on UiO-66-(OH)2
DOI: 10.1021/acs.iecr.5b04061
Article source: Figure 6C
Adsorbate Methane: InChIKey VNWKTOKETHGBQD-UHFFFAOYSA-N
Kind: experiment
Temperature: 298 K
Tabular data in the source: 0
pressure (bar)	uptake (mmol/g)
0.0468	0.01346
0.0833	0.0221
0.1403	0.0301
0.1992	0.03455
0.2453	0.04255
0.3132	0.04957
0.3511	0.09194
0.4497	0.10954
0.5157	0.12876
0.5644	0.14961
0.688	0.17008
0.9077	0.20912
1.032	0.23055
1.1313	0.25393
1.2376	0.26671
1.3529	0.28173
1.8134	0.31932
2.2662	0.35628
2.712	0.41155
3.1527	0.45815
3.6081	0.498
4.0577	0.5491
4.5022	0.60244
4.9461	0.66156
5.3983	0.71201
5.8428	0.75861
6.2899	0.8036
6.7376	0.8457
7.1872	0.88877
7.6297	0.92413
8.0813	0.9688
8.5271	1.00095
