Adsorption isotherm of Methane on UiO-66-(OH)2-NO2
DOI: 10.1021/acs.iecr.5b04061
Article source: Figure 6D
Adsorbate Methane: InChIKey VNWKTOKETHGBQD-UHFFFAOYSA-N
Kind: experiment
Temperature: 273 K
Tabular data in the source: 0
pressure (bar)	uptake (mmol/g)
0.0833	0.057
0.1226	0.1202
0.1756	0.1771
0.2803	0.2847
0.5544	0.4629
1.0857	0.6883
1.6032	0.8625
2.1375	0.9996
2.6348	1.1153
3.157	1.2177
3.6791	1.3146
4.1943	1.3878
4.7134	1.4633
5.2386	1.531
5.7636	1.59
6.2783	1.6427
6.8122	1.7018
7.3129	1.7481
7.8313	1.7929
8.3508	1.8346
