Adsorption isotherm of Methane on UiO-66-(OH)2
DOI: 10.1021/acs.iecr.5b04061
Article source: Figure 6D
Adsorbate Methane: InChIKey VNWKTOKETHGBQD-UHFFFAOYSA-N
Kind: experiment
Temperature: 273 K
Tabular data in the source: 0
pressure (bar)	uptake (mmol/g)
0.0718	0.0499
0.1442	0.1274
0.2272	0.1694
0.3028	0.2193
0.3618	0.2628
0.469	0.3168
0.5111	0.335
0.584	0.3809
0.7075	0.4278
0.9201	0.5081
1.0383	0.5486
1.1489	0.5852
1.2581	0.6155
1.37	0.6497
1.8329	0.7551
2.292	0.8573
2.7241	0.9373
3.189	1.0135
3.6345	1.0763
4.0877	1.1406
4.5358	1.2034
4.9902	1.2622
5.4342	1.3092
5.8783	1.3632
6.3323	1.4071
6.7736	1.4485
7.2314	1.4924
7.6714	1.533
8.1228	1.5753
8.5703	1.6096
