Adsorption isotherm of Nitrogen on UiO-66-NO2
DOI: 10.1021/acs.iecr.5b04061
Article source: Figure 6B
Adsorbate Nitrogen: InChIKey IJGRMHOSHXDMSA-UHFFFAOYSA-N
Kind: experiment
Temperature: 273 K
Tabular data in the source: 0
pressure (bar)	uptake (mmol/g)
0.0514	1.0763
0.0617	1.1592
0.086	1.2773
0.1068	1.3729
0.121	1.4393
0.1459	1.5252
0.2879	1.8496
0.5496	2.3278
1.0796	2.9547
1.6034	3.3983
2.1248	3.7337
2.624	4.0095
3.1576	4.2475
3.6692	4.4532
4.1839	4.6453
4.7105	4.8102
5.2257	4.9614
5.7459	5.1252
6.2649	5.2452
6.8065	5.3634
7.3029	5.4784
7.8258	5.5809
8.3472	5.6814
