Adsorption isotherm of Nitrogen on UiO-66-(OH)2-NO2
DOI: 10.1021/acs.iecr.5b04061
Article source: Figure 6A
Adsorbate Nitrogen: InChIKey IJGRMHOSHXDMSA-UHFFFAOYSA-N
Kind: experiment
Temperature: 298 K
Tabular data in the source: 0
pressure (bar)	uptake (mmol/g)
0.0524	0.1102
0.071	0.2138
0.0866	0.2708
0.1138	0.3667
0.1184	0.4493
0.1454	0.5106
0.2908	0.8048
0.5529	1.16
1.1016	1.6089
1.6039	1.9231
2.1366	2.1686
2.6313	2.37
3.1769	2.5443
3.6784	2.677
4.2025	2.8267
4.7127	2.953
5.259	3.0819
5.7801	3.1849
6.3011	3.2737
6.8547	3.3858
7.3332	3.4693
7.8667	3.5685
8.3689	3.6533
