Adsorption isotherm of Nitrogen on UiO-66-(OH)2
DOI: 10.1021/acs.iecr.5b04061
Article source: Figure 6B
Adsorbate Nitrogen: InChIKey IJGRMHOSHXDMSA-UHFFFAOYSA-N
Kind: experiment
Temperature: 273 K
Tabular data in the source: 0
pressure (bar)	uptake (mmol/g)
0.1738	1.0342
0.2017	1.0986
0.2487	1.2402
0.3044	1.3546
0.3682	1.4612
0.47	1.5934
0.5175	1.6882
0.5818	1.7627
0.6924	1.8744
0.9158	2.0716
1.0214	2.1629
1.1365	2.2396
1.2638	2.3134
1.3652	2.3852
1.8171	2.6003
2.2615	2.7735
2.6928	2.9251
3.1507	3.0759
3.5947	3.2033
4.0403	3.3199
4.4906	3.4327
4.9337	3.5405
5.3784	3.6455
5.8173	3.7348
6.2724	3.8398
6.7057	3.9349
7.1648	4.0263
7.5965	4.1136
8.0507	4.1952
8.4951	4.268
