Adsorption isotherm of Nitrogen on UiO-66-NO2-(OH)2
DOI: 10.1021/acs.iecr.5b04061
Article source: Figure 6B
Adsorbate Nitrogen: InChIKey IJGRMHOSHXDMSA-UHFFFAOYSA-N
Kind: experiment
Temperature: 273 K
Tabular data in the source: 0
pressure (bar)	uptake (mmol/g)
0.0999	1.0854
0.1346	1.2006
0.1493	1.322
0.1619	1.3986
0.2876	2.142
0.56	2.9848
1.0839	3.8845
1.6152	4.4646
2.1342	4.914
2.6402	5.2445
3.1605	5.539
3.6831	5.8139
4.1955	6.0304
4.7208	6.2352
5.2404	6.4225
5.7637	6.5815
6.2716	6.7238
6.819	6.8596
7.3211	6.9775
7.8392	7.0917
8.3575	7.2224
