Adsorption isotherm of Methane on UiO-66-(OH)2-NO2
DOI: 10.1021/acs.iecr.5b04061
Article source: Figure 6C
Adsorbate Methane: InChIKey VNWKTOKETHGBQD-UHFFFAOYSA-N
Kind: experiment
Temperature: 298 K
Tabular data in the source: 0
pressure (bar)	uptake (mmol/g)
0.0436	0.03883
0.0846	0.05679
0.1166	0.07122
0.1487	0.09175
0.2839	0.13566
0.5466	0.22958
1.0725	0.38146
1.5786	0.50091
2.1019	0.59595
2.6061	0.67848
3.1262	0.75618
3.6463	0.81815
4.1587	0.87434
4.6704	0.93053
5.1937	0.98414
5.7074	1.02652
6.2236	1.07083
6.7411	1.10967
7.2624	1.14659
7.7819	1.18286
8.2974	1.21465
