Adsorption isotherm of Nitrogen on UiO-66-N2
DOI: 10.1021/acs.iecr.5b04061
Article source: Figure 4A
Adsorbate Nitrogen: InChIKey IJGRMHOSHXDMSA-UHFFFAOYSA-N
Kind: experiment
Temperature: 77 K
Tabular data in the source: 0
pressure (bar)	uptake (cm3(STP)/g)
0.008967	166.97
0.009788	167.47
0.04128	187.56
0.042425	187.77
0.075416	190.82
0.076531	193.4
0.109016	199.24
0.117507	197.18
0.145097	203.01
0.14833	201.16
0.179183	206.99
0.185688	205.35
0.213441	210.24
0.216501	208.49
0.246625	213.7
0.248236	211.54
0.281785	216.55
0.283041	216.68
0.315141	219.59
0.317289	217.32
0.348862	219.56
0.349916	219.44
0.381468	223.31
0.383657	224.55
0.415372	226.87
0.419546	228.22
0.450542	229.92
0.452365	231.68
0.484982	233.18
0.486816	235.15
0.51924	236.02
0.521996	239.33
0.553336	240.41
0.556811	243.31
0.589418	244.81
0.590715	246.87
0.621517	248.88
0.62481	251.99
0.656708	253.79
0.659464	257.83
0.691361	260.04
0.694137	264.8
0.725305	267.12
0.728446	272.91
0.759248	274.2
0.76243	283.71
0.794135	284.89
0.798421	296.26
0.828859	297.24
0.834057	308.3
0.85422	331.06
0.862549	314.65
0.894294	402.19
0.897152	349
0.931258	404.01
0.93295	422.19
0.9651	552.2
0.965536	551.59
0.999622	562.27
