Adsorption isotherm of Methane on UiO-66-NO2
DOI: 10.1021/acs.iecr.5b04061
Article source: Figure 6D
Adsorbate Methane: InChIKey VNWKTOKETHGBQD-UHFFFAOYSA-N
Kind: experiment
Temperature: 273 K
Tabular data in the source: 0
pressure (bar)	uptake (mmol/g)
0.0711	0.0743
0.0999	0.1194
0.1303	0.1794
0.291	0.31
0.5555	0.5142
1.0847	0.8145
1.6121	1.0328
2.1372	1.2086
2.6428	1.3567
3.1579	1.4795
3.6789	1.5867
4.1958	1.6756
4.7202	1.7622
5.2405	1.8386
5.7594	1.9079
6.2821	1.9771
6.8146	2.0314
7.3154	2.0825
7.8301	2.132
8.3562	2.1808
