Adsorption isotherm of Nitrogen on UiO-66-(OH)2
DOI: 10.1021/acs.iecr.5b04061
Article source: Figure 6A
Adsorbate Nitrogen: InChIKey IJGRMHOSHXDMSA-UHFFFAOYSA-N
Kind: experiment
Temperature: 298 K
Tabular data in the source: 0
pressure (bar)	uptake (mmol/g)
0.1881	0.0974
0.2358	0.2322
0.3043	0.3398
0.3653	0.4396
0.4658	0.6198
0.529	0.6989
0.576	0.7702
0.6884	0.896
0.9148	1.0763
1.0344	1.1762
1.1387	1.2476
1.2542	1.3203
1.371	1.3943
1.8122	1.6021
2.2519	1.784
2.7126	1.9426
3.153	2.0818
3.6135	2.2236
4.0487	2.3356
4.4975	2.4436
4.9413	2.5479
5.4124	2.6404
5.8538	2.7472
6.295	2.8449
6.7422	2.9194
7.1884	3.0093
7.6345	3.0928
8.0781	3.1802
8.5326	3.2416
