Adsorption isotherm of Nitrogen on UiO-66-NO2-(OH)2
DOI: 10.1021/acs.iecr.5b04061
Article source: Figure 4D
Adsorbate Nitrogen: InChIKey IJGRMHOSHXDMSA-UHFFFAOYSA-N
Kind: experiment
Temperature: 77 K
Tabular data in the source: 0
pressure (bar)	uptake (cm3(STP)/g)
0.008228	162.341
0.008998	162.85
0.049153	188.859
0.04973	189.085
0.055182	190.315
0.087535	192.492
0.095276	193.923
0.117091	194.175
0.13768	195.901
0.150194	195.611
0.17434	197.082
0.184351	196.589
0.215113	198.016
0.219997	197.266
0.252745	197.969
0.254741	198.199
0.286294	198.425
0.294359	199.096
0.320116	198.836
0.335213	199.499
0.35407	199.192
0.37468	199.837
0.387862	199.428
0.414399	200.039
0.422079	199.601
0.453713	200.222
0.457665	199.847
0.491457	199.965
0.492743	199.994
0.514822	200.611
0.52538	200.018
0.560814	200.136
0.571362	200.715
0.594605	200.766
0.594666	200.766
0.628104	200.233
0.630211	200.582
0.652574	200.871
0.664651	200.342
0.692404	200.816
0.697055	200.414
0.731252	200.504
0.73335	200.788
0.765997	200.558
0.770729	200.971
0.791956	200.966
0.800873	200.538
0.831118	201.058
0.835485	200.674
0.867899	200.81
0.872074	201.177
0.903768	201.056
0.911398	201.488
0.938442	201.659
0.956295	202.304
0.970521	202.545
1.00529	205.328
1.00751	205.523
