Adsorption isotherm of Nitrogen on UiO-66-(OH)2-NO2
DOI: 10.1021/acs.iecr.5b04061
Article source: Figure 6B
Adsorbate Nitrogen: InChIKey IJGRMHOSHXDMSA-UHFFFAOYSA-N
Kind: experiment
Temperature: 273 K
Tabular data in the source: 0
pressure (bar)	uptake (mmol/g)
0.1788	1.0634
0.2691	1.3846
0.5479	1.8668
1.0805	2.4157
1.6062	2.7842
2.1336	3.0602
2.6324	3.2805
3.1496	3.4853
3.6682	3.6579
4.186	3.8325
4.719	3.9828
5.226	4.1124
5.7483	4.2422
6.2626	4.3787
6.797	4.4988
7.3178	4.6451
7.8181	4.7329
8.341	4.8295
