Adsorption isotherm of Methane on UiO-66-NO2-(OH)2
DOI: 10.1021/acs.iecr.5b04061
Article source: Figure 6D
Adsorbate Methane: InChIKey VNWKTOKETHGBQD-UHFFFAOYSA-N
Kind: experiment
Temperature: 273 K
Tabular data in the source: 0
pressure (bar)	uptake (mmol/g)
0.0679	0.0459
0.0734	0.1217
0.0842	0.1532
0.1262	0.2227
0.2918	0.4046
0.5657	0.6853
1.0921	1.0819
1.6203	1.3925
2.1534	1.644
2.6566	1.8551
3.1806	2.034
3.6915	2.1963
4.2185	2.3445
4.7375	2.4689
5.2663	2.5839
5.7772	2.6894
6.3007	2.7926
6.8364	2.8824
7.3418	2.9674
7.8737	3.0485
8.3775	3.1185
