Adsorption isotherm of Nitrogen on UiO-66-(OH)2-NO2
DOI: 10.1021/acs.iecr.5b04061
Article source: Figure 4C
Adsorbate Nitrogen: InChIKey IJGRMHOSHXDMSA-UHFFFAOYSA-N
Kind: experiment
Temperature: 77 K
Tabular data in the source: 0
pressure (bar)	uptake (cm3(STP)/g)
0.002888	158.117
0.003546	158.607
0.040044	188.066
0.040976	188.028
0.076713	193.538
0.077625	195.171
0.1109	199.395
0.121651	199.099
0.147519	202.678
0.152889	201.846
0.183013	204.957
0.191778	204.914
0.219744	207.322
0.220544	207.383
0.255987	209.263
0.258085	208.82
0.29209	210.142
0.29289	210.15
0.324433	211.774
0.32578	212.284
0.360271	213.368
0.363503	213.929
0.393759	214.493
0.397305	215.282
0.429415	215.688
0.430905	216.159
0.465426	217.471
0.46804	218.947
0.501164	218.229
0.503484	220.77
0.53376	219.071
0.541238	227.548
0.572932	220.902
0.575658	228.1
0.606987	220.695
0.609926	228.538
0.644072	221.867
0.645187	228.822
0.673669	221.767
0.679901	229.373
0.712457	229.987
0.714848	222.281
0.745833	222.88
0.750413	229.978
0.784945	224.123
0.788035	230.825
0.817358	224.718
0.822759	231.433
0.851829	225.669
0.858334	232.02
0.879096	232.476
0.887465	226.693
0.919616	233.506
0.922554	229.182
0.958595	231.27
0.959183	231.409
0.991364	238.461
0.991556	238.436
1.02756	245.377
1.02892	245.779
