Adsorption isotherm of Water on ZIF-71
DOI: 10.1021/Jp1033273
Adsorbate Water: InChIKey XLYOFNOQVPJJNP-UHFFFAOYSA-N
Temperature: 298 K
Tabular data in the source: 0
pressure (bar)	uptake (mmol/g)
0.0501984	0.0170067
0.0769414	0.328715
0.103722	0.798222
0.131142	1.26809
0.188472	1.84195
0.238283	2.36417
0.307714	3.04335
0.372595	3.98467
0.451206	4.82128
0.558113	5.81483
0.675751	6.80851
0.971547	7.01587
