Adsorption isotherm of Ethanol on Na-Rho-ZMOF
DOI: 10.1021/Jp1033273
Adsorbate Ethanol: InChIKey LFQSCWFLJHTTHZ-UHFFFAOYSA-N
Temperature: 298 K
Tabular data in the source: 0
pressure (bar)	uptake (mmol/g)
0.000129542	3.55e-15
0.000226971	0.0529101
0.000472574	0.10582
0.000846058	0.15873
0.00145074	0.21164
0.00223332	0.26455
0.00417455	0.31746
0.00731425	0.42328
0.0107843	0.529101
0.0133801	0.634921
0.0162469	0.740741
0.0201581	0.899471
0.0244771	1.00529
0.0317081	1.21693
0.0376799	1.53439
0.0438218	1.90476
0.0543701	2.80423
0.060562	3.28042
0.0735377	4.12698
0.0819125	4.55026
0.091241	4.92063
0.106111	5.18519
0.126096	5.50265
0.153113	5.60847
0.235703	5.55556
0.370755	5.39683
0.501457	5.07937
0.693025	4.97354
0.978661	4.92063
