Adsorption isotherm of Water on Na-Rho-ZMOF
DOI: 10.1021/Jp1033273
Adsorbate Water: InChIKey XLYOFNOQVPJJNP-UHFFFAOYSA-N
Temperature: 298 K
Tabular data in the source: 0
pressure (bar)	uptake (mmol/g)
0.000104409	5.02646
0.000126777	5.07937
0.000157297	5.18519
0.000190999	5.29101
0.000236979	5.34392
0.000287753	5.50265
0.000357018	5.60847
0.000433511	5.7672
0.000537873	5.87302
0.000653116	6.03175
0.000810345	6.19048
0.000962964	6.40212
0.00116928	6.50794
0.00141978	6.66667
0.00176157	6.8254
0.00209334	6.98413
0.00243456	7.14286
0.00295617	7.3545
0.00366775	7.56614
0.00445359	7.77778
0.00540779	7.98942
0.00656644	8.25397
0.00797333	8.46561
0.00927278	8.78307
0.0112595	8.88889
0.0133801	9.15344
0.0159005	9.4709
0.0188951	9.78836
0.0224538	10.1058
0.0266827	10.4233
0.0338275	10.8995
0.0393414	11.2169
0.0498758	11.746
0.0555559	11.9577
0.0632325	12.381
0.0719681	12.7513
0.083699	13.1746
0.0994626	13.6508
0.110789	14.0212
0.126096	14.4444
0.143519	14.8677
0.16691	15.2381
0.198346	15.6085
0.225751	15.7143
0.274119	15.9259
0.340107	15.9788
0.421981	16.0317
0.480285	16.2434
0.595904	16.2434
0.739353	16.2434
0.917338	16.2434
