Adsorption isotherm of Ethanol on ZIF-71
DOI: 10.1021/Jp1033273
Adsorbate Ethanol: InChIKey LFQSCWFLJHTTHZ-UHFFFAOYSA-N
Temperature: 298 K
Tabular data in the source: 0
pressure (bar)	uptake (mmol/g)
0.000156628	0.0498053
0.00100526	0.0915932
0.00190831	0.192662
0.00325589	0.189625
0.0049916	0.291908
0.00702554	0.394677
0.00988895	0.44509
0.0172338	0.599
0.0258625	0.701405
0.0371826	0.908765
0.0501256	1.37827
0.0647336	2.00509
0.0735326	2.73735
0.0853395	3.36478
0.0990057	4.3587
0.125199	4.6715
0.165319	4.51285
0.204752	4.30221
0.300905	3.98588
0.397442	3.56545
0.503072	2.9882
0.693562	2.46281
1.01909	2.30356
