Adsorption isotherm of Water on Na-Rho-ZMOF
DOI: 10.1021/Jp1033273
Adsorbate Water: InChIKey XLYOFNOQVPJJNP-UHFFFAOYSA-N
Temperature: 298 K
Tabular data in the source: 0
pressure (bar)	uptake (mmol/g)
0.000472574	3.55e-15
0.000962964	3.55e-15
0.00797333	0.0529101
0.0428864	3.55e-15
0.0543701	0.15873
0.0767803	0.529101
0.091241	0.793651
0.113205	1.0582
0.134526	1.37566
0.159863	1.64021
0.225751	2.38095
0.256943	2.80423
0.33285	3.59788
0.421981	4.28571
0.460005	5.02646
0.534979	5.82011
0.583187	6.2963
0.693025	7.19577
0.805978	7.46032
0.978661	7.72487
