Adsorption isotherm of Water on Na-Rho-ZMOF
DOI: 10.1021/Jp1033273
Adsorbate Water: InChIKey XLYOFNOQVPJJNP-UHFFFAOYSA-N
Temperature: 298 K
Tabular data in the source: 0
pressure (bar)	uptake (mmol/g)
1.03858e-06	6.7619
1.46009e-06	6.66667
2.13192e-06	6.85714
3.11279e-06	6.95238
4.37623e-06	7.14286
6.15234e-06	7.33333
8.98297e-06	7.42857
1.2629e-05	7.61905
1.7755e-05	7.80952
2.59239e-05	8
3.64452e-05	8.19048
5.32145e-05	8.38095
7.48118e-05	8.66667
0.000105177	8.95238
0.000147863	9.2381
0.000207879	9.71429
0.000292247	10.1905
0.000395603	10.6667
0.000535513	11.2381
0.000724886	11.8095
0.000909704	12.4762
0.00123143	12.6667
0.00160502	13.3333
0.00209194	13.9048
0.00294097	14.381
0.00398107	14.9524
0.00445985	15.3333
0.00581273	15.5238
0.00729474	16.2857
0.00881475	17.1429
0.0114887	18.6667
0.0133669	19.5238
0.0155518	20.381
0.0180938	21.2381
0.021864	22.0952
0.0254378	22.9524
0.0344342	24.4762
0.0432136	25.1429
0.0607519	25.3333
0.0822375	25.8095
0.0887054	26.0952
0.124707	26.2857
0.182085	26.4762
0.255988	26.4762
0.373769	26.5714
0.52547	26.7619
0.738742	26.7619
