Adsorption isotherm of Water on ZIF-71
DOI: 10.1021/Jp1033273
Adsorbate Water: InChIKey XLYOFNOQVPJJNP-UHFFFAOYSA-N
Temperature: 298 K
Tabular data in the source: 0
pressure (bar)	uptake (mmol/g)
0.00100531	0.0392369
0.00488776	-0.0221087
0.0101072	0.0261174
0.0491338	0.0694845
0.0706448	0.224488
0.0856032	0.485177
0.101518	0.903056
0.133945	1.4774
0.162295	1.79044
0.200861	2.26043
0.248521	2.99221
0.300955	3.82882
0.396509	5.76442
0.450223	6.86318
0.459562	7.6484
0.500208	8.32855
0.555931	9.47978
0.618033	10.3692
0.717315	10.9443
0.815218	11.2053
0.987989	11.309
