Adsorption isotherm of Ethanol on ZIF-71
DOI: 10.1021/Jp1033273
Adsorbate Ethanol: InChIKey LFQSCWFLJHTTHZ-UHFFFAOYSA-N
Temperature: 298 K
Tabular data in the source: 0
pressure (bar)	uptake (mmol/g)
0.00521921	0.463553
0.00939457	0.880799
0.0229645	1.20437
0.0302714	1.62132
0.0386221	2.363
0.0417537	3.15158
0.0438413	3.75463
0.0542797	4.40332
0.0626305	4.54175
0.0803758	4.86493
0.0949896	4.90998
0.104384	4.95551
0.113779	5.04745
0.124217	5.04648
0.134656	5.09191
0.154489	5.18288
0.162839	5.1357
0.173278	5.13473
0.183716	5.13376
0.194154	5.1792
0.204593	5.17823
0.213987	5.22376
0.223382	5.26929
0.232777	5.22202
0.243215	5.22105
0.25261	5.22018
0.262004	5.26571
0.272443	5.26474
0.282881	5.31017
0.293319	5.3092
0.303758	5.30824
0.314196	5.30727
0.323591	5.3528
0.334029	5.35183
0.344468	5.35086
0.354906	5.34989
0.364301	5.39542
0.374739	5.39446
0.385177	5.43989
0.395616	5.43892
0.406054	5.43795
0.416493	5.43698
0.426931	5.43602
0.436326	5.48155
0.454071	5.5263
0.464509	5.52534
0.474948	5.52437
0.485386	5.5234
0.494781	5.47612
0.5	5.52204
