Adsorption isotherm of Methanol on Na-Rho-ZMOF
DOI: 10.1021/Jp1033273
Adsorbate Methanol: InChIKey OKKJLVBELUTLKV-UHFFFAOYSA-N
Temperature: 298 K
Tabular data in the source: 0
pressure (bar)	uptake (mmol/g)
1.20834e-06	6
1.76433e-06	6.09524
2.57608e-06	6.09524
3.6216e-06	6.28571
5.28798e-06	6.38095
7.72094e-06	6.38095
1.12733e-05	6.47619
1.58489e-05	6.66667
2.31409e-05	6.7619
3.25334e-05	6.85714
4.57372e-05	6.95238
6.67821e-05	7.04762
9.38858e-05	7.2381
0.000122369	7.33333
0.000178669	7.42857
0.00026088	7.52381
0.000366758	7.71429
0.00051562	8
0.000752853	8.19048
0.00105843	8.47619
0.00118569	8.47619
0.00173125	8.66667
0.00243388	8.95238
0.00355369	9.14286
0.0048105	9.42857
0.00651178	9.52381
0.00915461	9.90476
0.0119319	10.0952
0.0167749	10.381
0.0244929	10.6667
0.0344342	10.9524
0.0484094	11.3333
0.0584952	11.4286
0.0854103	11.619
0.115615	11.619
0.16254	11.8095
0.211849	11.9048
0.297833	12
0.418714	12.1905
0.54574	12.1905
0.796838	12.1905
0.962857	12.2857
