Adsorption isotherm of Methanol on ZIF-71
DOI: 10.1021/Jp1033273
Adsorbate Methanol: InChIKey OKKJLVBELUTLKV-UHFFFAOYSA-N
Temperature: 298 K
Tabular data in the source: 0
pressure (bar)	uptake (mmol/g)
0.0177453	0.137564
0.0365344	0.321435
0.0563674	0.551613
0.0668058	0.643452
0.0845511	0.873824
0.0939457	0.965759
0.102296	1.1042
0.106472	1.15021
0.115866	1.33495
0.132568	2.12227
0.135699	2.49321
0.138831	3.28178
0.140919	3.74562
0.141962	4.72
0.151357	5.92563
0.155532	6.11086
0.163883	6.3421
0.174322	6.48034
0.226514	6.80032
0.236952	6.84576
0.254697	7.02973
0.265136	6.98235
0.275574	7.02779
0.284969	7.07332
0.295407	7.07235
0.303758	7.16438
0.314196	7.16342
0.324635	7.16245
0.335073	7.20788
0.344468	7.25341
0.354906	7.25244
0.365344	7.25148
0.375783	7.29691
0.386221	7.34235
0.39666	7.38778
0.40501	7.3406
0.414405	7.43254
0.424843	7.43157
0.435282	7.477
0.444676	7.52254
0.455115	7.52157
0.464509	7.5671
0.474948	7.61253
0.485386	7.61157
0.495825	7.6106
0.498956	7.70311
