Adsorption isotherm of Water on ZIF-71
DOI: 10.1021/Jp1033273
Adsorbate Water: InChIKey XLYOFNOQVPJJNP-UHFFFAOYSA-N
Temperature: 298 K
Tabular data in the source: 0
pressure (bar)	uptake (mmol/g)
0.0480167	0.0883511
0.0970772	0.0837979
0.133612	0.0340036
0.197286	0.213709
0.208768	0.259047
0.212944	1.37235
0.213987	1.83629
0.215031	2.30023
0.216075	2.76417
0.217119	3.22811
0.218163	3.97047
0.220251	5.17677
0.222338	6.10466
0.226514	8.33165
0.227557	8.79559
0.228601	9.25953
0.229645	10.1875
0.230689	10.6514
0.231733	11.1154
0.232777	11.5793
0.234864	12.9712
0.235908	13.4352
0.236952	13.8991
0.237996	14.3631
0.240084	15.9406
0.245303	16.2649
0.250522	16.6357
0.269311	17.5156
0.278706	17.6539
0.289144	17.7458
0.297495	18.0234
0.305846	17.9763
0.316284	18.0681
0.325678	18.16
0.336117	18.2055
0.344468	18.3903
0.353862	18.4822
0.363257	18.435
0.373695	18.4804
0.38309	18.5259
0.393528	18.6178
0.401879	18.7098
0.412317	18.7088
0.422756	18.7543
0.433194	18.7997
0.442589	18.8452
0.454071	18.937
0.463466	18.8897
0.473904	18.8887
0.484342	18.9342
0.494781	18.9796
0.5	18.9791
