Adsorption isotherm of Ethanol on ZIF-71
DOI: 10.1021/Jp1033273
Adsorbate Ethanol: InChIKey LFQSCWFLJHTTHZ-UHFFFAOYSA-N
Temperature: 298 K
Tabular data in the source: 0
pressure (bar)	uptake (mmol/g)
0.0137488	0.505747
0.0308077	0.689655
0.0445826	1.28736
0.0583705	1.93103
0.0653035	2.3908
0.0757291	3.17241
0.0826622	3.63218
0.0964631	4.32184
0.120364	4.64368
0.150976	4.64368
0.181549	4.50575
0.215524	4.36782
0.246123	4.32184
0.276709	4.22989
0.32769	4.09195
0.358251	3.90805
0.388811	3.72414
0.415982	3.58621
0.443128	3.35632
0.473688	3.17241
0.504248	2.98851
0.514439	2.94253
0.548427	2.85057
0.579	2.71264
0.612988	2.62069
0.643587	2.57471
0.674186	2.52874
0.704785	2.48276
0.735385	2.43678
0.769398	2.43678
0.803412	2.43678
0.837412	2.3908
0.871426	2.3908
0.90544	2.3908
0.939453	2.3908
0.970065	2.3908
