Adsorption isotherm of Water on Na-Rho-ZMOF
DOI: 10.1021/Jp1033273
Adsorbate Water: InChIKey XLYOFNOQVPJJNP-UHFFFAOYSA-N
Temperature: 298 K
Tabular data in the source: 0
pressure (bar)	uptake (mmol/g)
1.08545e-06	4.54849
1.6355e-06	4.61538
2.46428e-06	4.61538
3.71304e-06	4.68227
5.36995e-06	4.74916
8.09115e-06	4.81605
1.21913e-05	4.88294
1.83692e-05	4.94983
2.65662e-05	5.01672
4.00286e-05	5.08361
6.03143e-05	5.21739
8.72268e-05	5.35117
0.000131429	5.41806
0.000190077	5.61873
0.000274897	5.88629
0.000397567	6.15385
0.000574963	6.4214
0.000831534	6.68896
0.00115428	6.95652
0.00153794	7.35786
0.00213491	7.62542
0.00296354	7.95987
0.00428598	8.29431
0.00594949	8.62876
0.00825867	9.0301
0.0114644	9.23077
0.0146612	9.83278
0.0187499	10.301
0.0239784	10.8361
0.0294334	11.505
0.0462051	12.4415
0.061563	12.7759
0.0725321	13.311
0.100686	14.3813
0.118627	14.7826
0.139766	15.3846
0.164671	15.9866
0.238152	17.2575
0.292331	17.7926
0.389497	18.6622
0.498114	18.8629
1	18.8629
