Adsorption isotherm of Water on ZIF-71
DOI: 10.1021/Jp1033273
Adsorbate Water: InChIKey XLYOFNOQVPJJNP-UHFFFAOYSA-N
Temperature: 298 K
Tabular data in the source: 0
pressure (bar)	uptake (mmol/g)
0.0476321	0.045977
0.064704	0.275862
0.0852165	0.643678
0.0920974	0.91954
0.115972	1.14943
0.136471	1.47126
0.160372	1.7931
0.215002	2.52874
0.238903	2.85057
0.259416	3.21839
0.283316	3.54023
0.327743	4.27586
0.348255	4.64368
0.365379	5.05747
0.385892	5.42529
0.413298	6.11494
0.427021	6.52874
0.444145	6.94253
0.457867	7.35632
0.474992	7.77011
0.516055	8.64368
0.533167	9.01149
0.553679	9.37931
0.57758	9.70115
0.601493	10.069
0.625381	10.3448
0.65267	10.6207
0.679946	10.8506
0.707196	10.9885
0.737848	11.1264
0.771887	11.2184
0.805914	11.2644
0.836552	11.3563
0.870566	11.3563
0.904579	11.3563
0.938593	11.3563
0.972607	11.3563
