Adsorption isotherm of Water on ZIF-71
DOI: 10.1021/Jp1033273
Adsorbate Water: InChIKey XLYOFNOQVPJJNP-UHFFFAOYSA-N
Temperature: 298 K
Tabular data in the source: 0
pressure (bar)	uptake (mmol/g)
0.047619	0.0615385
0.119048	0
0.136054	1.35385
0.142857	1.96923
0.14966	2.89231
0.159864	3.69231
0.176871	5.47692
0.183673	5.96923
0.197279	6.70769
0.221088	7.01538
0.241497	7.50769
0.261905	7.93846
0.282313	8.43077
0.316327	9.10769
0.340136	9.47692
0.363946	9.90769
0.394558	10.4615
0.421769	10.6462
0.455782	10.8923
0.482993	11.2
0.513605	11.3231
0.537415	11.7538
0.564626	12.0615
0.591837	12.3692
0.622449	12.6154
0.656463	12.8615
0.687075	13.1077
0.714286	13.1077
0.748299	13.2923
0.778912	13.3538
0.812925	13.4154
0.846939	13.4769
0.877551	13.4769
0.911565	13.4769
0.945578	13.4769
0.979592	13.4769
1	13.4769
