Adsorption isotherm of Methanol on ZIF-71
DOI: 10.1021/Jp1033273
Adsorbate Methanol: InChIKey OKKJLVBELUTLKV-UHFFFAOYSA-N
Temperature: 298 K
Tabular data in the source: 0
pressure (bar)	uptake (mmol/g)
0.0170068	0.0615385
0.047619	0.246154
0.0986395	0.492308
0.119048	0.615385
0.136054	1.35385
0.142857	1.96923
0.163265	3.69231
0.173469	4
0.197279	4.06154
0.22449	3.93846
0.258503	3.75385
0.289116	3.63077
0.312925	3.44615
0.343537	3.38462
0.377551	3.26154
0.404762	3.2
0.438776	3.13846
0.469388	3.07692
0.496599	3.01538
0.527211	2.95385
0.561224	2.89231
0.591837	2.83077
0.62585	2.76923
0.659864	2.76923
0.693878	2.64615
0.721088	2.64615
0.755102	2.64615
0.789116	2.64615
0.823129	2.64615
0.857143	2.64615
0.891156	2.64615
0.92517	2.64615
0.959184	2.64615
1	2.64615
