Adsorption isotherm of Methanol on Na-Rho-ZMOF
DOI: 10.1021/Jp1033273
Adsorbate Methanol: InChIKey OKKJLVBELUTLKV-UHFFFAOYSA-N
Temperature: 298 K
Tabular data in the source: 0
pressure (bar)	uptake (mmol/g)
1.08545e-06	2.6087
1.50675e-06	2.6087
2.27028e-06	2.67559
3.42074e-06	2.74247
5.1543e-06	2.80936
7.76623e-06	2.80936
1.12318e-05	2.87625
1.69235e-05	2.94314
2.54994e-05	3.01003
3.84211e-05	3.07692
5.55661e-05	3.14381
8.3724e-05	3.14381
0.00011622	3.2107
0.000175114	3.34448
0.000253256	3.47826
0.000381593	3.54515
0.000574963	3.67893
0.000831534	3.74582
0.0012026	3.94649
0.00181201	4.08027
0.00241429	4.08027
0.00363773	4.14716
0.00548113	4.21405
0.00825867	4.28094
0.0110037	4.28094
0.015914	4.34783
0.0230155	4.54849
0.0361293	4.94983
0.0462051	5.48495
0.0641387	5.55184
0.0927598	5.28428
0.128763	5.01672
0.186222	4.48161
0.258501	4.28094
0.344423	3.94649
0.478107	4.01338
0.611435	3.94649
0.884275	3.8796
