Adsorption isotherm of Ethanol on Na-Rho-ZMOF
DOI: 10.1021/Jp1033273
Adsorbate Ethanol: InChIKey LFQSCWFLJHTTHZ-UHFFFAOYSA-N
Temperature: 298 K
Tabular data in the source: 0
pressure (bar)	uptake (mmol/g)
1.08465e-06	4.33294
1.56358e-06	4.33118
2.34742e-06	4.39588
3.5242e-06	4.46059
5.29091e-06	4.45863
7.94328e-06	4.52333
1.19253e-05	4.58804
1.71906e-05	4.65294
2.58083e-05	4.71765
3.7204e-05	4.71588
5.58547e-05	4.84725
8.38552e-05	4.97863
0.000116067	4.97706
0.000167313	5.24196
0.000251189	5.37333
0.000362093	5.63824
0.000521975	5.90314
0.000752437	6.16804
0.00104148	6.36647
0.00144152	6.63157
0.00199526	6.89667
0.00265173	7.29529
0.00367037	7.56039
0.00508019	7.95882
0.00703169	8.35725
0.00934523	8.75588
0.0129348	9.08765
0.0165063	9.55314
0.0219371	10.0851
0.0291548	10.6837
0.0514944	11.7476
0.0712755	12.7461
0.0947262	13.6114
0.116066	14.2104
0.142214	14.8094
0.181478	15.6082
0.251189	15.8733
0.362096	16.0049
0.521972	16.2031
0.783643	16.2012
