Adsorption isotherm of Ethanol on ZIF-71
DOI: 10.1021/Jp1033273
Adsorbate Ethanol: InChIKey LFQSCWFLJHTTHZ-UHFFFAOYSA-N
Temperature: 298 K
Tabular data in the source: 0
pressure (bar)	uptake (mmol/g)
0.00241418	0.138969
0.00521039	0.134596
0.00989122	0.235664
0.0142226	0.338312
0.0237514	0.387753
0.0364049	0.699461
0.0501453	1.01178
0.0690081	2.16179
0.0853257	3.52184
0.101144	4.35857
0.130666	4.67125
0.200412	4.35469
0.294509	4.09072
0.491994	3.82602
0.707631	3.66689
0.996203	3.56023
