Adsorption isotherm of Water on Na-Rho-ZMOF
DOI: 10.1021/Jp1033273
Adsorbate Water: InChIKey XLYOFNOQVPJJNP-UHFFFAOYSA-N
Temperature: 298 K
Tabular data in the source: 0
pressure (bar)	uptake (mmol/g)
1.08465e-06	2.79961
1.50131e-06	2.86471
2.25393e-06	2.86275
3.38384e-06	2.92745
5.08019e-06	2.99216
7.32335e-06	2.99039
1.05567e-05	3.05529
1.58489e-05	3.12
2.37941e-05	3.11804
3.57223e-05	3.18275
5.36303e-05	3.24745
7.42318e-05	3.24588
0.000102745	3.24431
0.000154255	3.37569
0.000222362	3.44059
0.000320538	3.50549
0.000462072	3.57039
0.000693713	3.6351
0.000921956	3.70039
0.00132902	3.83196
0.00176628	4.03059
0.00244478	3.96235
0.00367037	3.96039
0.00551036	3.95843
0.00794328	4.09
0.0109946	4.08843
0.0165063	4.2198
0.0237941	4.48471
0.0268788	4.61745
0.037204	4.54922
0.0514944	4.14765
0.0684368	3.94627
0.0947262	3.61137
0.136551	3.54294
0.196842	3.40784
0.283753	3.40608
0.392752	3.33784
0.543618	3.40294
0.783643	3.26784
1	3.33333
