Adsorption isotherm of Ethanol on Na-Rho-ZMOF
DOI: 10.1021/Jp1033273
Adsorbate Ethanol: InChIKey LFQSCWFLJHTTHZ-UHFFFAOYSA-N
Temperature: 298 K
Tabular data in the source: 0
pressure (bar)	uptake (mmol/g)
0.000102181	3.22751
0.000113818	3.33333
0.000141215	3.33333
0.00017521	3.38624
0.00021739	3.38624
0.000269718	3.43915
0.000327507	3.49206
0.00040635	3.49206
0.000504173	3.54497
0.000625533	3.59788
0.000776122	3.65079
0.00094241	3.75661
0.0011199	3.86243
0.00135985	3.91534
0.00168721	3.96825
0.00187932	4.07407
0.00223332	4.07407
0.00277089	4.02116
0.00343795	4.02116
0.0042656	4.02116
0.00529237	4.02116
0.00656644	4.02116
0.00797333	4.07407
0.00968166	4.07407
0.0115051	4.17989
0.0142748	4.17989
0.0173333	4.28571
0.0244771	4.44444
0.0303697	4.55026
0.0509636	4.28571
0.067459	3.96825
0.0994626	3.7037
0.140456	3.49206
0.194114	3.43915
0.29882	3.49206
0.387099	3.38624
0.490758	3.38624
0.708137	3.33333
0.978661	3.22751
