Adsorption isotherm of Ethanol on Na-Rho-ZMOF
DOI: 10.1021/Jp1033273
Adsorbate Ethanol: InChIKey LFQSCWFLJHTTHZ-UHFFFAOYSA-N
Temperature: 298 K
Tabular data in the source: 0
pressure (bar)	uptake (mmol/g)
1.20834e-06	5.61905
1.76433e-06	5.52381
2.57608e-06	5.61905
3.76132e-06	5.61905
5.49199e-06	5.61905
7.72094e-06	5.71429
1.12733e-05	5.71429
1.64604e-05	5.71429
2.40337e-05	5.80952
3.50922e-05	5.80952
5.12377e-05	5.90476
7.48118e-05	5.90476
0.000105177	5.90476
0.000147863	6.09524
0.000215899	6.19048
0.000303522	6.28571
0.00044318	6.38095
0.000647083	6.47619
0.000875931	6.66667
0.00123143	6.7619
0.001798	6.85714
0.00262531	6.95238
0.0036908	7.04762
0.00518884	7.04762
0.00702393	7.33333
0.0095078	7.52381
0.0128703	7.61905
0.0187919	7.71429
0.0274385	7.80952
0.0385745	7.90476
0.0542313	8
0.0734091	8
0.103205	7.90476
0.150689	8
0.175322	8.19048
0.24648	8.19048
0.346518	8.19048
0.487159	8.09524
0.684882	8.19048
0.927093	8.19048
