Adsorption isotherm of Arsenate, Water on n.TiO2.FS.CS
DOI: 10.1016/j.cej.2017.01.121
Article source: Figure 8
Adsorbate Arsenate: InChIKey HAYXDMNJJFVXCI-UHFFFAOYSA-N
Adsorbate Water: InChIKey XLYOFNOQVPJJNP-UHFFFAOYSA-N
Kind: experiment
Temperature: 298 K
Tabular data in the source: 0
pressure (bar)	Arsenate fraction	Arsenate uptake (mg/kg)	Water fraction	Water uptake (mg/kg)	total uptake (mg/kg)
10.1325	0.586	250.06			
10.1325	1.28281	457.17			
10.1325	2.29289	858.39			
10.1325	3.08914	1596.29			
10.1325	3.56388	1812.48			
