Adsorption isotherm of Arsenate, Water on n.TiO2.FS.CS
DOI: 10.1016/j.cej.2017.01.121
Article source: Figure 8
Adsorbate Arsenate: InChIKey HAYXDMNJJFVXCI-UHFFFAOYSA-N
Adsorbate Water: InChIKey XLYOFNOQVPJJNP-UHFFFAOYSA-N
Kind: experiment
Temperature: 308 K
Tabular data in the source: 0
pressure (bar)	Arsenate fraction	Arsenate uptake (mg/kg)	Water fraction	Water uptake (mg/kg)	total uptake (mg/kg)
10.1325	0.616	235.38			
10.1325	1.17854	446.58			
10.1325	1.44851	533.01			
10.1325	2.32803	827.04			
10.1325	3.11226	1510.83			
10.1325	3.56903	1699.82			
