Adsorption isotherm of Arsenate, Water on n.TiO2.FS.CS
DOI: 10.1016/j.cej.2017.01.121
Article source: Figure 8
Adsorbate Arsenate: InChIKey HAYXDMNJJFVXCI-UHFFFAOYSA-N
Adsorbate Water: InChIKey XLYOFNOQVPJJNP-UHFFFAOYSA-N
Kind: experiment
Temperature: 288 K
Tabular data in the source: 0
pressure (bar)	Arsenate fraction	Arsenate uptake (mg/kg)	Water fraction	Water uptake (mg/kg)	total uptake (mg/kg)
10.1325	0.636	251.72			
10.1325	1.48024	442.77			
10.1325	1.61364	532.17			
10.1325	2.24817	880.98			
10.1325	3.08917	1588.5			
10.1325	3.51682	2114.66			
