Adsorption isotherm of Hydrogen on IRMOF-1
DOI: 10.1021/Jp901988e
Adsorbate Hydrogen: InChIKey UFHFLCQGNIYNRP-UHFFFAOYSA-N
Temperature: 125 K
Tabular data in the source: 0
pressure (bar)	uptake (wt%)
0.739521	0.127968
11.5983	1.48259
21.2336	2.46578
31.3278	3.12124
41.4219	3.62377
51.363	4.10444
61.6101	4.43217
