Adsorption isotherm of Hydrogen on IRMOF-1
DOI: 10.1021/Jp901988e
Adsorbate Hydrogen: InChIKey UFHFLCQGNIYNRP-UHFFFAOYSA-N
Temperature: 77 K
Tabular data in the source: 0
pressure (bar)	uptake (wt%)
0.402664	0.416996
1.39678	1.30842
2.3909	2.06002
3.66905	2.60187
4.80519	3.26607
6.79342	3.738
9.20771	4.24489
12.3321	4.71683
17.7287	5.20624
23.2674	5.4859
29.8001	5.66069
37.185	5.73061
44.4279	5.71313
52.2388	5.67817
57.2094	5.62574
61.3279	5.55582
