Adsorption isotherm of Hydrogen on IRMOF-1
DOI: 10.1021/Jp901988e
Adsorbate Hydrogen: InChIKey UFHFLCQGNIYNRP-UHFFFAOYSA-N
Temperature: 100 K
Tabular data in the source: 0
pressure (bar)	uptake (wt%)
1.0454	0.43385
5.32776	1.67923
11.4454	2.94646
21.2336	4.12629
31.3278	4.93469
41.2689	5.39351
51.516	5.89603
61.3042	6.24561
