Adsorption isotherm of Hydrogen on IRMOF-1
DOI: 10.1021/Jp901988e
Adsorbate Hydrogen: InChIKey UFHFLCQGNIYNRP-UHFFFAOYSA-N
Temperature: 300 K
Tabular data in the source: 0
pressure (bar)	uptake (wt%)
5.08922	0.0149791
8.78166	0.0674161
13.0422	0.0674161
16.3085	0.102374
21.9892	0.154811
26.9598	0.137332
32.9245	0.17229
37.4691	0.189769
44.1438	0.224727
50.5346	0.242206
55.5052	0.224727
62.18	0.242206
