Adsorption isotherm of Hydrogen on IRMOF-1
DOI: 10.1021/Jp901988e
Adsorbate Hydrogen: InChIKey UFHFLCQGNIYNRP-UHFFFAOYSA-N
Temperature: 300 K
Tabular data in the source: 0
pressure (bar)	uptake (wt%)
3.95129	0.0624214
7.92776	0.171665
13.5866	0.237211
21.2336	0.324606
28.5748	0.368304
34.8454	0.499396
42.4925	0.630489
49.3748	0.717884
55.9513	0.827127
61.916	0.870825
