Adsorption isotherm of Hydrogen on IRMOF-1
DOI: 10.1021/Jp901988e
Adsorbate Hydrogen: InChIKey UFHFLCQGNIYNRP-UHFFFAOYSA-N
Temperature: 77 K
Tabular data in the source: 0
pressure (bar)	uptake (wt%)
1.39678	1.37834
2.10687	2.30473
3.243	2.93397
6.22535	4.10506
11.1959	5.01397
16.3085	5.5733
21.2791	5.78305
26.3917	5.88792
31.3623	5.97532
36.1909	6.08019
41.3035	6.16758
46.2741	6.25498
51.2447	6.09767
56.0733	6.08019
61.4699	5.94036
