Adsorption isotherm of Hydrogen on IRMOF-1
DOI: 10.1021/Jp901988e
Adsorbate Hydrogen: InChIKey UFHFLCQGNIYNRP-UHFFFAOYSA-N
Temperature: 100 K
Tabular data in the source: 0
pressure (bar)	uptake (wt%)
1.25477	0.382038
5.37325	1.55313
11.338	2.61935
21.1371	3.54574
31.3623	4.07011
41.3035	4.24489
51.2447	4.41968
61.1859	4.47212
