Adsorption isotherm of Hydrogen on IRMOF-1
DOI: 10.1021/Jp901988e
Adsorbate Hydrogen: InChIKey UFHFLCQGNIYNRP-UHFFFAOYSA-N
Temperature: 60 K
Tabular data in the source: 0
pressure (bar)	uptake (wt%)
1.35129	4.25738
2.11599	5.30612
3.03364	6.02713
6.2454	6.85738
11.2925	7.68763
16.0336	8.1683
21.0807	8.49603
26.2807	8.56158
31.3278	8.73637
36.2219	8.78007
41.2689	8.99856
46.0101	9.0641
51.363	9.0641
