Adsorption isotherm of Hydrogen on IRMOF-1
DOI: 10.1021/Jp901988e
Adsorbate Hydrogen: InChIKey UFHFLCQGNIYNRP-UHFFFAOYSA-N
Temperature: 100 K
Tabular data in the source: 0
pressure (bar)	uptake (wt%)
0.828715	0.224727
1.96485	0.69666
4.37914	1.18607
7.78754	1.78036
12.048	2.32221
17.1606	2.8291
24.2615	3.28355
31.2203	3.58069
38.6052	3.80792
46.5581	3.94775
53.801	4.05263
61.3279	4.05263
