Adsorption isotherm of Hydrogen on IRMOF-1
DOI: 10.1021/Jp901988e
Adsorbate Hydrogen: InChIKey UFHFLCQGNIYNRP-UHFFFAOYSA-N
Temperature: 77 K
Tabular data in the source: 0
pressure (bar)	uptake (wt%)
0.00481196	0.0191951
0.0782237	0.179783
0.14377	0.314153
0.211938	0.428859
0.293215	0.559951
0.387602	0.694321
0.500341	0.828691
0.605215	0.94012
0.733686	1.08104
0.859535	1.1892
1.01685	1.3334
1.10599	1.4055
1.17678	1.46449
