Adsorption isotherm of Hydrogen on IRMOF-1
DOI: 10.1021/Jp901988e
Adsorbate Hydrogen: InChIKey UFHFLCQGNIYNRP-UHFFFAOYSA-N
Temperature: 200 K
Tabular data in the source: 0
pressure (bar)	uptake (wt%)
1.81011	0.106119
5.78658	0.215363
10.8336	0.390152
16.1866	0.586791
22.6101	0.739732
27.9631	0.914522
33.6219	1.06746
39.5866	1.2204
46.0101	1.41704
51.516	1.52629
57.0219	1.63553
61.7631	1.76662
