Adsorption isotherm of Hydrogen on IRMOF-1
DOI: 10.1021/Jp901988e
Adsorbate Hydrogen: InChIKey UFHFLCQGNIYNRP-UHFFFAOYSA-N
Temperature: 60 K
Tabular data in the source: 0
pressure (bar)	uptake (wt%)
0.280697	0.914522
0.892462	2.22545
1.35129	3.49267
1.96305	4.62881
3.18658	5.54645
5.32776	6.48595
8.23364	7.16326
12.3631	7.77503
17.2572	8.23385
23.3748	8.56158
28.7278	8.82377
34.9983	8.99856
41.5748	9.1515
51.363	9.28259
