Adsorption isotherm of Hydrogen on IRMOF-1
DOI: 10.1021/Jp901988e
Adsorbate Hydrogen: InChIKey UFHFLCQGNIYNRP-UHFFFAOYSA-N
Temperature: 100 K
Tabular data in the source: 0
pressure (bar)	uptake (wt%)
1.19834	0.346455
3.18658	0.980068
6.2454	1.74477
10.5278	2.46578
16.0336	3.20864
22.916	3.8641
30.1042	4.41032
37.1395	4.78175
44.7866	5.15318
52.2807	5.45906
61.6101	5.72124
