Adsorption isotherm of Hydrogen on IRMOF-1
DOI: 10.1021/Jp901988e
Adsorbate Hydrogen: InChIKey UFHFLCQGNIYNRP-UHFFFAOYSA-N
Temperature: 200 K
Tabular data in the source: 0
pressure (bar)	uptake (wt%)
1.19834	0.0842701
11.4454	0.412001
21.5395	0.78343
31.4807	1.08931
41.4219	1.37335
51.363	1.63553
61.4572	1.87587
