Adsorption isotherm of Hydrogen on IRMOF-1
DOI: 10.1021/Jp901988e
Adsorbate Hydrogen: InChIKey UFHFLCQGNIYNRP-UHFFFAOYSA-N
Temperature: 300 K
Tabular data in the source: 0
pressure (bar)	uptake (wt%)
11.1959	0.0499371
21.4212	0.119853
31.2203	0.154811
41.1615	0.224727
51.2447	0.259685
60.9018	0.277164
