Adsorption isotherm of Hydrogen on IRMOF-1
DOI: 10.1021/Jp901988e
Adsorbate Hydrogen: InChIKey UFHFLCQGNIYNRP-UHFFFAOYSA-N
Temperature: 60 K
Tabular data in the source: 0
pressure (bar)	uptake (wt%)
0.544681	1.02876
0.828715	2.37464
1.5388	3.24859
1.82283	4.27985
3.243	5.25868
4.66317	6.01027
6.22535	6.42977
9.34972	6.93666
13.7522	7.25128
19.0069	7.39111
24.5455	7.37363
31.2203	7.25128
37.6111	7.09397
43.7178	6.9017
51.3867	6.5696
