Adsorption isotherm of Hydrogen on IRMOF-1
DOI: 10.1021/Jp901988e
Adsorbate Hydrogen: InChIKey UFHFLCQGNIYNRP-UHFFFAOYSA-N
Temperature: 77 K
Tabular data in the source: 0
pressure (bar)	uptake (wt%)
0	0.137332
1.9448	2.04254
3.91119	3.28355
6.27085	4.34977
9.54816	5.25868
11.1213	5.69565
14.7919	6.16758
19.1179	6.60456
24.6238	6.86674
31.0473	7.04153
37.6019	7.05901
44.1566	7.04153
52.5465	6.9891
59.7566	6.84926
