Adsorption isotherm of Hydrogen on IRMOF-1
DOI: 10.1021/Jp901988e
Adsorbate Hydrogen: InChIKey UFHFLCQGNIYNRP-UHFFFAOYSA-N
Temperature: 77 K
Tabular data in the source: 0
pressure (bar)	uptake (wt%)
1.28934	1.37834
2.20698	2.32221
3.12463	2.95145
6.27085	4.14002
11.2524	5.01397
16.1028	5.59078
21.2154	5.80053
26.328	5.94036
31.1784	5.97532
36.1599	6.09767
41.0103	6.13263
46.123	6.28994
51.2356	6.1501
56.3482	6.08019
