Adsorption isotherm of Hydrogen on IRMOF-1
DOI: 10.1021/Jp901988e
Adsorbate Hydrogen: InChIKey UFHFLCQGNIYNRP-UHFFFAOYSA-N
Temperature: 77 K
Tabular data in the source: 0
pressure (bar)	uptake (wt%)
0.0467615	0.101128
0.104442	0.169951
0.151635	0.248607
0.253888	0.412472
0.348274	0.569783
0.447904	0.700876
0.547535	0.828691
0.649787	0.923733
0.749417	1.03844
0.799232	1.12037
0.856913	1.1302
0.890997	1.2023
0.946056	1.2318
0.993249	1.29735
1.09812	1.41205
1.19513	1.51693
