Adsorption isotherm of Hydrogen on IRMOF-1
DOI: 10.1021/Jp901988e
Adsorbate Hydrogen: InChIKey UFHFLCQGNIYNRP-UHFFFAOYSA-N
Temperature: 200 K
Tabular data in the source: 0
pressure (bar)	uptake (wt%)
1.25477	-0.0374579
11.1959	0.224727
21.4212	0.434475
31.2203	0.609265
41.4455	0.731618
51.1027	0.853971
61.3279	0.941366
