Adsorption isotherm of Hydrogen on IRMOF-1
DOI: 10.1021/Jp901988e
Adsorbate Hydrogen: InChIKey UFHFLCQGNIYNRP-UHFFFAOYSA-N
Temperature: 77 K
Tabular data in the source: 0
pressure (bar)	uptake (wt%)
0.58658	0.739732
1.35129	1.43889
2.42187	2.22545
4.25717	3.14309
6.39834	3.8641
9.76305	4.73805
15.116	5.54645
22.4572	6.26746
28.5748	6.66074
36.8336	7.07587
44.9395	7.4036
52.4336	7.64393
61.7631	7.81872
