Adsorption isotherm of Hydrogen on IRMOF-1
DOI: 10.1021/Jp901988e
Adsorbate Hydrogen: InChIKey UFHFLCQGNIYNRP-UHFFFAOYSA-N
Temperature: 300 K
Tabular data in the source: 0
pressure (bar)	uptake (wt%)
11.2925	0.193514
21.2336	0.368304
31.1748	0.499396
41.116	0.60864
51.363	0.761581
61.1513	0.914522
