Adsorption isotherm of Hydrogen on IRMOF-1
DOI: 10.1021/Jp901988e
Adsorbate Hydrogen: InChIKey UFHFLCQGNIYNRP-UHFFFAOYSA-N
Temperature: 200 K
Tabular data in the source: 0
pressure (bar)	uptake (wt%)
2.3909	0.0324581
6.93544	0.119853
12.1901	0.259685
17.0186	0.329601
23.5514	0.469433
31.6464	0.556828
38.6052	0.626744
45.422	0.731618
55.0791	0.836492
61.7539	0.941366
