Adsorption isotherm of Hydrogen on IRMOF-1
DOI: 10.1021/Jp901988e
Adsorbate Hydrogen: InChIKey UFHFLCQGNIYNRP-UHFFFAOYSA-N
Temperature: 125 K
Tabular data in the source: 0
pressure (bar)	uptake (wt%)
1.0454	0.193514
3.95129	0.586791
7.46893	1.04561
13.4336	1.59183
19.2454	2.07251
25.8219	2.53133
31.3278	2.88091
36.9866	3.16494
43.1042	3.44898
49.3748	3.73301
56.2572	3.99519
61.7631	4.19183
