Adsorption isotherm of Hydrogen on IRMOF-1
DOI: 10.1021/Jp901988e
Adsorbate Hydrogen: InChIKey UFHFLCQGNIYNRP-UHFFFAOYSA-N
Temperature: 77 K
Tabular data in the source: 0
pressure (bar)	uptake (wt%)
1.35129	1.41704
2.11599	2.42209
3.03364	3.0557
6.09246	4.36662
11.1395	5.52461
16.9513	6.20192
20.9278	6.52965
25.516	6.81368
36.0689	7.3162
46.0101	7.84057
51.516	7.84057
56.2572	7.94982
61.4572	7.97166
