Adsorption isotherm of Hydrogen on IRMOF-1
DOI: 10.1021/Jp901988e
Adsorbate Hydrogen: InChIKey UFHFLCQGNIYNRP-UHFFFAOYSA-N
Temperature: 60 K
Tabular data in the source: 0
pressure (bar)	uptake (wt%)
1.39678	4.19246
2.3909	5.20624
3.243	5.85296
6.36737	6.60456
11.338	7.19884
16.3085	7.44355
21.1371	7.53095
26.3917	7.47851
31.5043	7.40859
36.0489	7.28624
41.4455	7.28624
46.2741	7.19884
51.3867	6.9891
