Adsorption isotherm of Hydrogen on IRMOF-1
DOI: 10.1021/Jp901988e
Adsorbate Hydrogen: InChIKey UFHFLCQGNIYNRP-UHFFFAOYSA-N
Temperature: 125 K
Tabular data in the source: 0
pressure (bar)	uptake (wt%)
1.11275	0.102374
4.37914	0.504391
9.34972	0.976324
14.7464	1.37834
22.1312	1.79784
30.2262	2.14742
37.6111	2.37464
45.138	2.58439
52.8069	2.7417
58.2035	2.79414
62.038	2.81162
