Adsorption isotherm of Hydrogen on IRMOF-1
DOI: 10.1021/Jp901988e
Adsorbate Hydrogen: InChIKey UFHFLCQGNIYNRP-UHFFFAOYSA-N
Temperature: 77 K
Tabular data in the source: 0
pressure (bar)	uptake (wt%)
0.37169	0.137332
1.02715	1.11616
2.60026	2.32221
4.43556	3.05632
6.53303	3.75548
9.94144	4.41968
14.7919	4.97901
18.9868	5.29363
24.6238	5.55582
31.4406	5.69565
37.9952	5.73061
44.812	5.73061
52.8087	5.67817
60.0187	5.59078
