Adsorption isotherm of Hydrogen on IRMOF-1
DOI: 10.1021/Jp901988e
Adsorbate Hydrogen: InChIKey UFHFLCQGNIYNRP-UHFFFAOYSA-N
Temperature: 125 K
Tabular data in the source: 0
pressure (bar)	uptake (wt%)
1.25477	0.102374
11.48	1.20355
21.1371	1.92019
31.2203	2.35716
41.4455	2.70674
51.5287	2.88153
61.0438	3.03884
