Adsorption isotherm of Carbon Dioxide on [Zn(FA)(datrz)2]n
DOI: 10.1002/zaac.201500152
Article source: Figure 3
Adsorbate Carbon Dioxide: InChIKey CURLTUGMZLYLDI-UHFFFAOYSA-N
Kind: experiment
Temperature: 298 K
Tabular data in the source: 0
pressure (bar)	uptake (cm3(STP)/g)
0.000912	0.134
0.010426	0.904
0.021592	1.965
0.033528	3.506
0.045596	4.713
0.062659	6.37
0.072326	7.126
0.093908	9.031
0.120303	11.201
0.145705	12.849
0.183074	15.469
0.199337	16.403
0.245946	19.05
0.251651	19.132
0.307856	22.047
0.309284	22.1
0.371387	24.646
0.374528	24.811
0.435586	26.926
0.436528	26.958
0.495307	29.088
0.55674	30.699
0.560165	30.754
0.623534	32.433
0.68668	33.967
0.747556	35.214
0.801714	36.414
0.847006	37.037
0.864029	37.367
0.866663	37.406
0.928492	38.398
0.974503	38.975
1.01093	39.645
