Adsorption isotherm of Nitrogen on [Zn(FA)(datrz)2]n
DOI: 10.1002/zaac.201500152
Article source: Figure 3
Adsorbate Nitrogen: InChIKey IJGRMHOSHXDMSA-UHFFFAOYSA-N
Kind: experiment
Temperature: 77 K
Tabular data in the source: 0
pressure (bar)	uptake (cm3(STP)/g)
0.000679	92.215
0.000942	39.576
0.000952	22.425
0.000963	13.266
0.000973	6.596
0.001074	19.695
0.001135	79.245
0.001145	72.593
0.001175	32.961
0.001196	0.185
0.001267	59.457
0.001277	46.228
0.001378	52.879
0.001581	95.294
0.001591	95.455
0.001905	98.088
0.008947	101.441
0.015645	102.683
0.032971	104.72
0.050794	112.037
0.061129	105.701
0.084373	106.108
0.10021	113.016
0.103483	106.478
0.124265	106.737
0.143871	107.025
0.152869	113.598
0.164896	107.289
0.184584	107.465
0.204099	114.207
0.204261	114.203
0.256251	108.066
0.256352	108.061
0.306741	115.422
0.307339	108.432
0.356806	115.68
0.358427	108.931
0.408887	109.661
0.408978	109.635
0.460066	110.285
0.461515	115.843
0.510577	110.543
0.516606	115.879
0.561756	110.801
0.567673	115.711
0.61333	111.056
0.618072	115.709
0.665482	111.348
0.671248	115.701
0.714088	111.553
0.721089	115.435
0.756391	115.375
0.766686	111.713
0.807479	114.932
0.816973	112.006
0.838171	112.034
0.868284	112.496
0.876482	115.048
0.893312	112.922
0.919575	113.31
0.924023	115.503
0.94517	113.976
0.969082	118.266
0.971089	115.199
0.98495	117.014
1.00163	119.912
