Adsorption isotherm of Carbon Dioxide on [Zn(FA)(datrz)2]n
DOI: 10.1002/zaac.201500152
Article source: Figure 3
Adsorbate Carbon Dioxide: InChIKey CURLTUGMZLYLDI-UHFFFAOYSA-N
Kind: experiment
Temperature: 273 K
Tabular data in the source: 0
pressure (bar)	uptake (cm3(STP)/g)
0.002523	0.25
0.004327	2.46
0.007346	4.059
0.014135	6.312
0.020022	8.522
0.026051	10.078
0.03209	12.302
0.044005	15.123
0.054878	17.842
0.069641	20.71
0.081739	23.11
0.095033	25.337
0.107131	27.22
0.1193	29.162
0.143638	32.523
0.174066	35.995
0.183003	37.112
0.195831	38.404
0.221223	40.941
0.243089	42.925
0.244325	43.011
0.307298	47.24
0.309457	47.388
0.36863	51.094
0.369593	51.141
0.430591	54.241
0.431827	54.307
0.497992	57.259
0.559709	59.847
0.61942	61.991
0.682272	64.272
0.683224	64.299
0.73028	65.824
0.741304	66.173
0.792169	67.555
0.817976	68.238
0.855801	69.475
0.895166	70.547
0.972852	72.398
