Adsorption isotherm of Carbon Dioxide on [Zn2(fu-bdc)2(dabco)]n
DOI: 10.1021/Ja302991b
Adsorbate Carbon Dioxide: InChIKey CURLTUGMZLYLDI-UHFFFAOYSA-N
Temperature: 195 K
Tabular data in the source: 0
pressure (bar)	uptake (cm3(STP)/g)
0.0332736	5.86369
0.161944	5.91804
0.306344	6.39716
0.450745	6.87628
0.584641	7.35097
0.742171	7.83563
0.886417	10.8235
0.914634	21.7069
0.942363	40.5346
0.970632	50.5817
0.993957	55.6092
