Adsorption isotherm of Carbon Dioxide on [Zn2(fu-bdc)2(dabco)]n
DOI: 10.1021/Ja302991b
Adsorbate Carbon Dioxide: InChIKey CURLTUGMZLYLDI-UHFFFAOYSA-N
Temperature: 195 K
Tabular data in the source: 0
pressure (bar)	uptake (cm3(STP)/g)
0.00581032	7.08636
0.0130604	28.318
0.0450085	42.2088
0.108631	67.296
0.167822	73.8527
0.313654	81.6529
0.459349	88.106
0.711807	93.4998
1.00224	96.9757
