Adsorption isotherm of Nitrogen on [Zn2(fu-bdc)2(dabco)]n
DOI: 10.1021/Ja302991b
Adsorbate Nitrogen: InChIKey IJGRMHOSHXDMSA-UHFFFAOYSA-N
Temperature: 77 K
Tabular data in the source: 0
pressure (bar)	uptake (cm3(STP)/g)
0.00761249	-0.318108
0.209365	1.41873
0.362422	1.39151
0.464489	1.59565
0.564004	1.79468
0.663562	2.32712
0.837033	2.34073
0.936548	2.53976
0.975376	6.95075
0.994131	13.9883
