Adsorption isotherm of Nitrogen on [Zn2(fu-bdc)2(dabco)]n
DOI: 10.1021/Ja302991b
Adsorbate Nitrogen: InChIKey IJGRMHOSHXDMSA-UHFFFAOYSA-N
Temperature: 77 K
Tabular data in the source: 0
pressure (bar)	uptake (cm3(STP)/g)
0.000155452	0.9298
0.201	2.23171
0.395419	2.60189
0.602378	2.97594
0.702697	3.00703
0.803171	3.96792
0.909812	4.31089
0.947638	5.56228
0.976268	8.0505
0.993445	17.0434
