Adsorption isotherm of Nitrogen on [Zn2(fu-bdc)2(dabco)]n
DOI: 10.1021/Ja302991b
Adsorbate Nitrogen: InChIKey IJGRMHOSHXDMSA-UHFFFAOYSA-N
Temperature: 77 K
Tabular data in the source: 0
pressure (bar)	uptake (cm3(STP)/g)
0.040927	0.984896
0.125802	0.331057
0.201241	-0.34761
0.301966	1.67184
0.452886	1.19181
0.60389	2.46638
0.710739	0.993172
0.864887	2.27602
0.952948	2.50776
0.981502	7.84606
0.99491	25.4252
