Adsorption isotherm of Carbon Dioxide on [Zn2(fu-bdc)2(dabco)]n
DOI: 10.1021/Ja302991b
Adsorbate Carbon Dioxide: InChIKey CURLTUGMZLYLDI-UHFFFAOYSA-N
Temperature: 195 K
Tabular data in the source: 0
pressure (bar)	uptake (cm3(STP)/g)
0.000662115	14.0368
0.0231326	23.7451
0.0956342	27.4447
0.249948	32.2367
0.454542	36.2839
0.489799	50.4118
0.517029	94.3431
0.549969	126.009
0.585723	150.664
0.646555	173.631
0.706849	185.193
0.754231	189.704
0.911732	195.382
1.00935	198.27
