Adsorption isotherm of Nitrogen on [Zn2(fu-bdc)2(dabco)]n
DOI: 10.1021/Ja302991b
Adsorbate Nitrogen: InChIKey IJGRMHOSHXDMSA-UHFFFAOYSA-N
Temperature: 77 K
Tabular data in the source: 0
pressure (bar)	uptake (cm3(STP)/g)
0.00634321	2.14252
0.103894	4.77259
0.251704	5.22977
0.349214	6.25042
0.402686	6.75822
0.493893	7.24577
0.647992	7.69957
0.805264	9.22464
0.871341	10.7986
0.934341	15.0567
0.975464	24.6913
0.988434	40.2423
