Adsorption isotherm of Nitrogen on [Zn2(fu-bdc)2(dabco)]n
DOI: 10.1021/Ja302991b
Adsorbate Nitrogen: InChIKey IJGRMHOSHXDMSA-UHFFFAOYSA-N
Temperature: 77 K
Tabular data in the source: 0
pressure (bar)	uptake (cm3(STP)/g)
0.000311215	4.97945
0.0203457	25.5313
0.0363992	32.3878
0.105502	38.0325
0.199528	42.4478
0.243669	48.6994
0.302488	89.8148
0.354163	116.61
0.454984	129.744
0.555221	133.541
0.705461	137.369
0.802378	138.051
1.00567	140.667
