Adsorption isotherm of Carbon Dioxide on [Zn2(fu-bdc)2(dabco)]n
DOI: 10.1021/Ja302991b
Adsorbate Carbon Dioxide: InChIKey CURLTUGMZLYLDI-UHFFFAOYSA-N
Temperature: 195 K
Tabular data in the source: 0
pressure (bar)	uptake (cm3(STP)/g)
0.00715081	5.27081
0.104542	6.54066
0.148431	6.55427
0.547037	9.46706
0.594114	9.79156
0.696401	21.6001
0.738866	31.8406
0.793715	41.1551
0.844858	47.0594
1.00295	55.1662
