Adsorption isotherm of Carbon Dioxide on [Zn2(fu-bdc)2(dabco)]n
DOI: 10.1021/Ja302991b
Adsorbate Carbon Dioxide: InChIKey CURLTUGMZLYLDI-UHFFFAOYSA-N
Temperature: 195 K
Tabular data in the source: 0
pressure (bar)	uptake (cm3(STP)/g)
0.0156645	0.632156
0.200124	1.99178
0.250088	1.40047
0.306379	2.05791
0.350091	1.46271
0.503222	1.55802
0.603226	1.62027
0.706355	1.68445
0.806398	2.36913
0.853275	2.3983
0.90648	3.67623
0.950309	4.94833
0.98488	8.08188
0.991636	16.1774
