Adsorption isotherm of Carbon Dioxide on [Zn2(fu-bdc)2(dabco)]n
DOI: 10.1021/Ja302991b
Adsorbate Carbon Dioxide: InChIKey CURLTUGMZLYLDI-UHFFFAOYSA-N
Temperature: 195 K
Tabular data in the source: 0
pressure (bar)	uptake (cm3(STP)/g)
0.122273	10.5007
0.502826	14.0065
0.589405	15.2975
0.649673	17.4136
0.677556	33.7326
0.690197	41.6825
0.722459	72.2198
0.730054	76.8225
0.755619	88.1229
0.797352	92.74
0.88097	99.4654
0.988299	104.946
