Adsorption isotherm of Carbon Dioxide on [Zn2(fu-bdc)2(dabco)]n
DOI: 10.1021/Ja302991b
Adsorbate Carbon Dioxide: InChIKey CURLTUGMZLYLDI-UHFFFAOYSA-N
Temperature: 195 K
Tabular data in the source: 0
pressure (bar)	uptake (cm3(STP)/g)
0.106954	3.38601
0.503366	5.22597
0.650366	6.12433
0.852409	8.71846
0.902173	10.8301
0.949182	15.0313
0.956495	24.2333
0.961207	33.0161
0.963088	45.1428
0.965251	52.6701
0.985771	60.6233
0.995786	68.5721
