Adsorption isotherm of Carbon Dioxide on [Zn2(fu-bdc)2(dabco)]n
DOI: 10.1021/Ja302991b
Adsorbate Carbon Dioxide: InChIKey CURLTUGMZLYLDI-UHFFFAOYSA-N
Temperature: 195 K
Tabular data in the source: 0
pressure (bar)	uptake (cm3(STP)/g)
0.00826974	5.03843
0.0983303	6.75454
0.450275	8.16095
0.593275	10.3189
0.651783	14.9588
0.686647	22.1063
0.74287	32.1998
0.793719	41.0323
0.83911	47.3451
0.892216	50.3044
0.995699	54.9632
