Adsorption isotherm of Nitrogen on [Zn2(fu-bdc)2(dabco)]n
DOI: 10.1021/Ja302991b
Adsorbate Nitrogen: InChIKey IJGRMHOSHXDMSA-UHFFFAOYSA-N
Temperature: 77 K
Tabular data in the source: 0
pressure (bar)	uptake (cm3(STP)/g)
0.00466074	31.6143
0.0418143	56.5022
0.111167	67.9372
0.158715	105.605
0.20913	133.857
0.281614	141.928
0.419584	147.982
0.573888	152.691
0.724825	155.381
0.826494	156.054
0.921606	156.726
1.01669	156.726
