Adsorption isotherm of Carbon Dioxide on [Zn2(fu-bdc)2(dabco)]n
DOI: 10.1021/Ja302991b
Adsorbate Carbon Dioxide: InChIKey CURLTUGMZLYLDI-UHFFFAOYSA-N
Temperature: 195 K
Tabular data in the source: 0
pressure (bar)	uptake (cm3(STP)/g)
0.0164285	8.3985
0.300032	16.4895
0.337764	26.9949
0.366745	65.1888
0.404505	76.1138
0.450173	86.6225
0.503307	90.0014
0.553795	93.3792
0.606873	95.919
0.702419	100.574
0.803228	104.813
0.90919	106.955
1.00722	109.094
