Adsorption isotherm of Carbon Dioxide on [Zn2(fu-bdc)2(dabco)]n
DOI: 10.1021/Ja302991b
Adsorbate Carbon Dioxide: InChIKey CURLTUGMZLYLDI-UHFFFAOYSA-N
Temperature: 195 K
Tabular data in the source: 0
pressure (bar)	uptake (cm3(STP)/g)
0.0112699	8.35587
0.0218168	11.0436
0.0628562	12.7924
0.152505	15.6383
0.196053	17.0588
0.2288	33.7909
0.308284	76.9499
0.345369	87.6907
0.414902	92.8298
0.612274	100.225
0.758017	102.849
1.00591	106.345
