Adsorption isotherm of Carbon Dioxide on [Zn2(fu-bdc)2(dabco)]n
DOI: 10.1021/Ja302991b
Adsorbate Carbon Dioxide: InChIKey CURLTUGMZLYLDI-UHFFFAOYSA-N
Temperature: 195 K
Tabular data in the source: 0
pressure (bar)	uptake (cm3(STP)/g)
0.00317284	7.97336
0.0404884	12.1848
0.146478	14.7468
0.199556	17.2865
0.227122	34.0813
0.273928	61.7933
0.290495	72.2897
0.336497	87.8335
0.400324	92.8952
0.506397	96.716
0.646862	100.551
0.797798	102.712
0.99371	104.892
