Adsorption isotherm of Carbon Dioxide on [Zn2(fu-bdc)2(dabco)]n
DOI: 10.1021/Ja302991b
Adsorbate Carbon Dioxide: InChIKey CURLTUGMZLYLDI-UHFFFAOYSA-N
Temperature: 195 K
Tabular data in the source: 0
pressure (bar)	uptake (cm3(STP)/g)
0.0213589	2.94602
0.148513	5.51686
0.450331	9.00014
0.654096	9.9248
0.752121	12.0638
0.802581	15.0221
0.85404	33.0856
0.902965	52.8264
0.945849	61.236
1.0072	68.8142
