Adsorption isotherm of Carbon Dioxide on [Zn2(fu-bdc)2(dabco)]n
DOI: 10.1021/Ja302991b
Adsorbate Carbon Dioxide: InChIKey CURLTUGMZLYLDI-UHFFFAOYSA-N
Temperature: 195 K
Tabular data in the source: 0
pressure (bar)	uptake (cm3(STP)/g)
0.0134428	28.825
0.0263277	39.8528
0.0579156	47.5067
0.0924789	50.0784
0.158444	54.3716
0.199277	56.9485
0.245264	123.937
0.309104	160.431
0.35015	169.788
0.406844	178.311
0.604607	186.953
0.802263	192.205
0.999973	199.153
