Adsorption isotherm of Nitrogen on [Zn2(fu-bdc)2(dabco)]n
DOI: 10.1021/Ja302991b
Adsorbate Nitrogen: InChIKey IJGRMHOSHXDMSA-UHFFFAOYSA-N
Temperature: 77 K
Tabular data in the source: 0
pressure (bar)	uptake (cm3(STP)/g)
0.000239101	7.62732
0.00669483	13.565
0.0819054	12.7813
0.154034	13.6899
0.257485	13.7775
0.30767	14.6675
0.411121	14.7552
0.51141	13.9927
0.608618	14.9226
0.705826	15.8524
0.859462	16.8301
0.959884	20.305
0.991605	32.1963
