Adsorption isotherm of Carbon Dioxide on [Zn2(fu-bdc)2(dabco)]n
DOI: 10.1021/Ja302991b
Adsorbate Carbon Dioxide: InChIKey CURLTUGMZLYLDI-UHFFFAOYSA-N
Temperature: 195 K
Tabular data in the source: 0
pressure (bar)	uptake (cm3(STP)/g)
0.114549	7.98869
0.500329	11.9148
0.739006	16.6151
0.762022	26.66
0.771267	47.1524
0.775414	65.1339
0.798379	76.0151
0.821396	86.06
0.844747	90.6693
0.883853	95.2853
0.933257	103.251
0.990694	108.711
