Adsorption isotherm of Nitrogen on [Zn2(fu-bdc)2(dabco)]n
DOI: 10.1021/Ja302991b
Adsorbate Nitrogen: InChIKey IJGRMHOSHXDMSA-UHFFFAOYSA-N
Temperature: 77 K
Tabular data in the source: 0
pressure (bar)	uptake (cm3(STP)/g)
0.00254523	0.00685583
0.0560293	0.487621
0.147692	1.07122
0.277498	1.42087
0.455698	2.23757
0.610957	2.65578
0.906272	4.12464
0.954734	5.26528
0.993941	15.4719
