Adsorption isotherm of Carbon Dioxide on [Zn2(fu-bdc)2(dabco)]n
DOI: 10.1021/Ja302991b
Adsorbate Carbon Dioxide: InChIKey CURLTUGMZLYLDI-UHFFFAOYSA-N
Temperature: 195 K
Tabular data in the source: 0
pressure (bar)	uptake (cm3(STP)/g)
0.0491063	4.61598
0.503186	8.15283
0.825841	13.7248
0.854495	17.5001
0.856247	31.7174
0.86598	44.2655
0.87561	58.4861
0.885497	68.5255
0.900328	83.5845
0.915647	90.6993
0.93372	95.7245
0.993756	101.604
