Adsorption isotherm of Carbon Dioxide on [Zn2(fu-bdc)2(dabco)]n
DOI: 10.1021/Ja302991b
Adsorbate Carbon Dioxide: InChIKey CURLTUGMZLYLDI-UHFFFAOYSA-N
Temperature: 195 K
Tabular data in the source: 0
pressure (bar)	uptake (cm3(STP)/g)
0.00339631	2.69058
0.00457252	29.5964
0.0540175	35.6502
0.168801	36.3229
0.418099	39.0135
0.621466	41.0314
0.821613	44.3946
0.916901	49.1031
0.976652	65.9193
1.0021	123.094
