Adsorption isotherm of Carbon Dioxide on [Zn2(fu-bdc)2(dabco)]n
DOI: 10.1021/Ja302991b
Adsorbate Carbon Dioxide: InChIKey CURLTUGMZLYLDI-UHFFFAOYSA-N
Temperature: 195 K
Tabular data in the source: 0
pressure (bar)	uptake (cm3(STP)/g)
0.0189756	4.28167
0.0598961	5.86915
0.110277	8.52453
0.110871	32.1294
0.123935	51.4357
0.156002	76.0966
0.193967	85.1964
0.253931	93.7479
0.414454	99.5631
0.603212	102.681
0.757487	110.109
0.999784	116.416
