Adsorption isotherm of Carbon Dioxide on [Zn2(fu-bdc)2(dabco)]n
DOI: 10.1021/Ja302991b
Adsorbate Carbon Dioxide: InChIKey CURLTUGMZLYLDI-UHFFFAOYSA-N
Temperature: 195 K
Tabular data in the source: 0
pressure (bar)	uptake (cm3(STP)/g)
0.0586744	7.15749
0.450636	13.6157
0.501124	16.9935
0.550576	44.7065
0.575246	57.7239
0.605041	68.2259
0.653661	83.3512
0.704454	91.3445
0.757671	95.9822
0.853106	98.9593
1.00674	101.961
