Adsorption isotherm of Nitrogen on brick-wall COF
DOI: 10.1021/acsmacrolett.6b00805
Article source: Figure S16
Adsorbate Nitrogen: InChIKey IJGRMHOSHXDMSA-UHFFFAOYSA-N
Kind: experiment
Temperature: 273 K
Tabular data in the source: 0
pressure (bar)	uptake (mg/g)
1.00871	1.23778
0.974672	1.23778
0.987153	1.36808
0.923612	1.17264
0.917939	1.10749
0.909996	1.17264
0.869148	1.10749
0.857802	1.10749
0.814685	1.10749
0.807877	1.10749
0.765894	0.977199
0.755683	0.977199
0.714835	0.846906
0.705758	0.846906
0.66491	0.781759
0.656967	0.781759
0.61385	0.716612
0.607042	0.716612
0.560521	0.586319
0.554848	0.521173
0.501519	0.390879
0.456133	0.390879
0.454998	0.390879
0.417554	0.260586
0.406208	0.456026
0.402804	0.260586
0.355148	0.325733
0.350609	0.19544
0.318839	0.325733
0.302954	0.19544
0.267779	0.19544
0.262106	0.260586
0.249625	0.130293
0.21445	0.260586
0.197431	0.19544
0.188353	0.260586
0.158852	0.260586
0.147506	0.130293
0.104389	0.260586
0.083965	0.19544
0.073753	0.19544
0.009077	0.130293
0.032905	0.19544
0.053329	0.130293
