Adsorption isotherm of Carbon Dioxide on brick-wall COF
DOI: 10.1021/acsmacrolett.6b00805
Article source: Figure 4
Adsorbate Carbon Dioxide: InChIKey CURLTUGMZLYLDI-UHFFFAOYSA-N
Kind: experiment
Temperature: 195 K
Tabular data in the source: 0
pressure (bar)	uptake (mg/g)
0.013096	44.1616
0.030974	71.023
0.023556	51.7266
0.045238	81.5675
0.057077	103.692
0.080612	129.53
0.100582	150.188
0.12174	181.262
0.131963	216.759
0.137668	209.011
0.131963	186.965
0.1448	234.101
0.150506	253.304
0.165483	280.247
0.174754	299.45
0.203282	316.75
0.25178	329.519
0.304913	339.457
0.353054	345.48
0.380156	350.069
0.406754	352.987
0.434359	356.094
0.458753	359.069
0.487136	361.716
0.509958	364.334
0.535633	366.429
0.547044	377.602
0.562735	370.22
0.586983	371.55
0.612817	376.076
0.636907	377.004
0.662582	379.099
0.689327	381.21
0.709939	384.027
0.816633	391.269
0.866557	393.78
0.918519	396.789
0.967831	400.646
0.994933	404.836
0.960762	404.978
0.914013	402.798
0.863924	400.073
0.818288	397.349
0.75039	393.534
0.76486	388.085
0.70698	390.265
0.686944	389.175
0.658004	386.45
0.627951	384.816
0.609029	383.726
0.578975	379.911
0.532226	376.097
0.504399	372.827
0.474346	371.193
0.453197	367.923
0.427596	364.654
0.399769	361.929
0.374168	358.659
0.348567	354.573
0.305157	348.306
0.250616	339.315
0.201641	324.33
0.17604	314.521
0.177153	304.712
0.153778	287.275
0.152665	276.377
0.140421	240.957
0.125951	203.902
0.110924	175.567
0.101463	163.034
0.101463	157.039
0.080315	140.692
0.078088	136.877
0.059166	116.715
0.058053	110.176
0.043583	91.1043
0.038018	86.745
0.019095	57.3193
0.029113	69.58
0.005738	37.1574
0.005738	31.7082
0.004625	27.8937
0.004625	25.7141
0.002955	21.3547
0.001286	17.5403
0.000173	12.636
