Adsorption isotherm of Nitrogen on brick-wall COF
DOI: 10.1021/acsmacrolett.6b00805
Article source: Figure 3
Adsorbate Nitrogen: InChIKey IJGRMHOSHXDMSA-UHFFFAOYSA-N
Kind: experiment
Temperature: 77 K
Tabular data in the source: 0
pressure (bar)	uptake (cm3(STP)/g)
2e-05	14.1697
0.010655	61.8783
0.001352	26.0064
0.006468	75.0236
0.005523	48.6231
0.000645	54.9128
0.011786	84.9739
0.021971	92.0004
0.027311	100.302
0.051655	108.077
0.060219	90.3726
0.091234	112.434
0.102542	96.2169
0.130812	114.968
0.14212	100.05
0.249548	120.947
0.260856	108.736
0.300434	111.302
0.410689	124.836
0.41917	117.299
0.450361	126.545
0.459292	119.515
0.608581	134.857
0.616519	126.606
0.648867	135.173
0.655484	128.107
0.720249	131.333
0.765764	136.628
0.812128	137.695
0.922382	150.7
0.963374	168.699
0.962668	177.443
0.979276	186.59
0.985519	198.132
0.991016	207.549
0.998869	219.859
0.861288	142.205
0.861288	151.324
0.909821	158.416
0.932985	164.832
0.952839	161.117
0.979312	183.069
0.98593	191.511
0.991445	202.318
0.806136	145.92
0.750984	142.543
0.700245	139.504
0.550233	132.412
0.56016	123.969
0.505008	130.723
0.511627	121.605
0.347275	124.307
0.359408	115.526
0.303154	123.294
0.209396	105.733
0.163069	101.005
0.152038	99.9915
0.129978	98.9783
0.12005	98.3029
0.113432	96.952
0.091372	94.9258
0.084753	94.2504
0.075929	92.5618
0.066002	91.5487
0.039529	88.1715
0.019675	76.3516
0.009747	56.4266
0.003129	45.6198
0.000923	39.2033
0.000923	32.449
0.00018	20.9668
0.001283	6.78288
0.19285	118.903
0.14542	115.526
0.12005	114.513
0.107917	113.838
0.101299	113.162
0.082547	111.474
0.071517	110.461
0.060487	109.11
0.035117	105.057
0.003129	69.9351
0.009747	81.4173
0.002026	64.194
0.000923	59.6348
