Adsorption isotherm of Carbon Dioxide on brick-wall COF
DOI: 10.1021/acsmacrolett.6b00805
Article source: Figure 4
Adsorbate Carbon Dioxide: InChIKey CURLTUGMZLYLDI-UHFFFAOYSA-N
Kind: experiment
Temperature: 298 K
Tabular data in the source: 0
pressure (bar)	uptake (mg/g)
0.009292	2.61243
0.029262	2.81194
0.049231	3.61001
0.069201	4.90686
0.089171	5.40565
0.10914	5.20613
0.12911	5.50541
0.149079	5.80468
0.166196	5.40565
0.194724	6.10395
0.223252	6.40323
0.254633	7.40081
0.286013	8.39839
0.317394	8.79742
0.345922	9.39596
0.368674	9.99239
0.38491	9.94463
0.411995	10.999
0.42867	10.315
0.44577	11.1916
0.472872	12.1559
0.496407	12.6331
0.508531	12.6215
0.543336	14.2974
0.557029	13.5525
0.596255	14.4836
0.608379	14.4836
0.643183	14.4836
0.658303	15.7057
0.69111	15.1819
0.708227	16.4389
0.742461	17.626
0.759577	17.4165
0.798566	19.139
0.812354	17.9751
0.849155	19.5114
0.863704	19.0226
0.899935	20.1578
0.915055	19.8955
0.954043	20.8149
0.966788	21.1175
0.989611	21.1286
1.01918	21.2672
0.461545	11.8186
0.401439	10.7288
0.984137	20.8098
