Adsorption isotherm of Carbon Dioxide on brick-wall COF
DOI: 10.1021/acsmacrolett.6b00805
Article source: Figure 4
Adsorbate Carbon Dioxide: InChIKey CURLTUGMZLYLDI-UHFFFAOYSA-N
Kind: experiment
Temperature: 273 K
Tabular data in the source: 0
pressure (bar)	uptake (mg/g)
0.012758	1.73654
0.035698	3.48494
0.052444	5.11984
0.070022	6.45545
0.09375	7.97855
0.117536	9.37089
0.144392	11.2334
0.17166	12.3037
0.195211	13.6316
0.224958	15.0696
0.254706	16.4987
0.284454	17.8214
0.315441	19.143
0.347668	20.437
0.377415	21.7017
0.408403	23.0141
0.43939	24.0191
0.469138	25.1396
0.496406	26.3062
0.550944	27.6266
0.603002	29.2526
0.653821	30.7722
0.703401	32.1925
0.75422	33.4922
0.806278	34.7803
0.855032	36.1212
0.910395	37.2736
0.960526	38.2862
0.999887	39.1605
1.02319	39.5748
0.983308	38.9084
0.947923	38.8304
0.897567	37.037
0.84721	36.5692
0.795493	35.2437
0.745137	33.9181
0.698863	32.9825
0.648507	31.6569
0.595429	30.1754
0.542351	28.2261
0.496077	27.1345
0.460692	26.1209
0.432111	25.1072
0.010207	1.32554
0.018373	2.41715
0.012929	2.65107
0.015651	3.35283
0.038788	4.36647
0.059203	6.0039
0.038788	6.0039
0.098671	10.2924
0.082339	7.32943
0.101393	8.65497
0.120447	11.6179
0.140861	12.5536
0.161276	13.8012
0.189857	15.2827
0.219798	16.8421
0.251101	18.0897
0.281042	19.4152
0.309623	20.7407
0.340245	21.9883
0.370867	22.807
0.400809	23.9766
