Adsorption isotherm of Nitrogen on brick-wall COF
DOI: 10.1021/acsmacrolett.6b00805
Article source: Figure S16
Adsorbate Nitrogen: InChIKey IJGRMHOSHXDMSA-UHFFFAOYSA-N
Kind: experiment
Temperature: 195 K
Tabular data in the source: 0
pressure (bar)	uptake (mg/g)
0.01385	2.22486
0.047789	2.00372
0.093689	2.67886
0.128027	2.56411
0.162497	3.19069
0.213712	3.06878
0.266176	3.82831
0.31739	3.87654
0.367356	4.06944
0.417321	4.16588
0.469785	4.16588
0.51975	4.35878
0.569716	4.93747
0.62093	4.92541
0.672145	4.93747
0.723359	5.51616
0.772076	5.61261
0.824539	5.70905
0.874505	5.8055
0.926969	5.70905
0.977291	6.67354
1.00067	5.85373
0.980675	6.17761
0.948672	6.17761
0.898381	6.17761
0.849233	6.17761
0.798942	6.17761
0.749794	5.55985
0.69836	4.94208
0.650354	5.25097
0.601206	4.6332
0.550915	4.32432
0.502339	4.32432
0.452619	4.32432
0.388613	3.39768
0.34175	3.0888
0.290316	3.0888
0.241168	2.47104
0.193163	2.47104
0.145158	1.85328
0.109726	2.16216
0.083437	2.16216
0.032003	1.5444
0.002857	2.16216
0.059435	1.85328
0.070293	2.16216
