Adsorption isotherm of Isobutane on [Cu4(mu4-O)(mu2-OH)2(Me2traz-pba)4]
DOI: 10.1039/C3ta15331b
Adsorbate Isobutane: InChIKey NNPPMTNAJDCUHE-UHFFFAOYSA-N
Temperature: 313 K
Tabular data in the source: 0
pressure (bar)	uptake (mmol/g)
6.36107e-05	0.0758504
0.00016186	0.115736
0.000307199	0.142295
0.000874219	0.237307
0.00171554	0.374444
0.00382196	0.469876
0.0094656	0.634273
0.0181296	0.702305
0.0255109	0.729377
0.0339966	0.756544
0.042906	0.783803
0.0587545	0.810922
0.162263	1.0996
0.232563	1.33408
2.31606	2.54713
4.559	2.73958
8.47266	2.87681
29.7105	3.1789
43.3521	3.2474
120.806	3.45308
186.136	3.52149
257.223	3.59008
439.218	3.67214
710.264	3.75429
808.854	3.7679
