Adsorption isotherm of Isobutane on [Cu4(mu4-O)(mu2-OH)2(Me2traz-pba)4]
DOI: 10.1039/C3ta15331b
Adsorbate Isobutane: InChIKey NNPPMTNAJDCUHE-UHFFFAOYSA-N
Temperature: 343 K
Tabular data in the source: 0
pressure (bar)	uptake (mmol/g)
0.000442843	0.0362126
0.000699923	0.0496316
0.00100706	0.0907536
0.00232519	0.172904
0.00588002	0.29641
0.0104928	0.406404
0.0166356	0.475065
0.0215911	0.502464
0.0292386	0.55745
0.0566259	0.667373
0.0908686	0.708402
0.13436	0.7495
0.173332	0.790716
0.226329	0.804298
0.291978	0.845514
0.39423	0.969558
0.623261	1.23158
0.816357	1.3004
1.33854	1.60383
3.1582	2.07267
5.61992	2.37603
32.1336	2.81649
55.1277	2.95414
91.1948	3.05039
211.865	3.24303
322.924	3.33934
416.591	3.38056
