Adsorption isotherm of Isobutane on [Cu4(mu4-O)(mu2-OH)2(Me2traz-pba)4]
DOI: 10.1039/C3ta15331b
Adsorbate Isobutane: InChIKey NNPPMTNAJDCUHE-UHFFFAOYSA-N
Temperature: 283 K
Tabular data in the source: 0
pressure (bar)	uptake (mmol/g)
4.50495e-06	0.0389054
1.66748e-05	0.0919774
4.96512e-05	0.145423
0.00038782	0.418484
0.000658249	0.514382
0.00145765	0.623654
0.00375461	0.760324
0.00806635	0.81433
0.0117339	0.827516
0.0178075	0.868289
0.0272763	1.075
0.0609833	1.59914
0.095986	1.8058
0.163949	2.13679
0.205069	2.24704
0.427622	2.61917
0.689477	2.77048
2.83798	3.14144
6.30406	3.30603
16.8384	3.48412
33.043	3.62126
62.5302	3.71697
99.5979	3.77149
431.479	3.96259
672.868	4.00331
961.258	4.05802
1441.55	4.25094
