Adsorption isotherm of Nitrogen on [Cu4(mu4-O)(mu2-OH)2(Me2traz-pba)4]
DOI: 10.1039/C3ta15331b
Adsorbate Nitrogen: InChIKey IJGRMHOSHXDMSA-UHFFFAOYSA-N
Temperature: 77 K
Tabular data in the source: 0
pressure (bar)	uptake (cm3(STP)/g)
0.00348304	81.5387
0.00358453	60.602
0.00367535	41.8691
0.00501087	166.386
0.00511236	145.449
0.00524057	119.002
0.00533139	100.269
0.00765519	20.928
0.0107375	185.112
0.016507	195.023
0.0184194	200.53
0.0300438	202.721
0.0416735	203.809
0.0533032	204.898
0.0629991	204.887
0.0746288	205.976
0.0882029	205.961
0.10565	207.043
0.121163	207.025
0.132804	205.91
0.14056	205.901
0.19678	209.143
0.216188	205.815
0.233636	206.898
0.256906	206.871
0.276297	206.849
0.29375	206.829
0.313147	205.705
0.334462	208.987
0.37324	210.045
0.412028	208.899
0.450454	282.685
0.475536	309.103
0.48325	317.909
0.506417	338.82
0.521894	346.515
0.543192	353.103
0.560619	358.593
0.583867	362.974
0.601315	364.056
0.620701	365.136
0.645904	366.21
0.669175	366.183
0.688556	368.365
0.725379	372.731
0.742837	371.609
0.758344	372.694
0.777737	372.672
0.802935	374.847
0.818448	374.829
0.870811	373.668
0.899888	375.839
0.925092	376.912
0.95029	379.087
0.963849	382.378
