Adsorption isotherm of Isobutene on [Cu4(mu4-O)(mu2-OH)2(Me2traz-pba)4]
DOI: 10.1039/C3ta15331b
Adsorbate Isobutene: InChIKey VQTUBCCKSQIDNK-UHFFFAOYSA-N
Temperature: 343 K
Tabular data in the source: 0
pressure (bar)	uptake (mmol/g)
3.37419e-05	0.0876226
0.000713116	0.084154
0.00153484	0.156581
0.00227009	0.174461
0.00609871	0.319934
0.0128099	0.447362
0.0312321	0.64792
0.0588285	0.775472
0.108138	0.958026
0.194836	1.10395
0.314797	1.25001
0.78946	1.46886
5.77617	2.54774
11.5051	2.8768
38.1031	3.20529
66.7421	3.33292
113.658	3.44226
188.17	3.53331
371.963	3.71578
857.156	3.87976
1087.48	3.91614
