Adsorption isotherm of N-Butane on [Cu4(mu4-O)(mu2-OH)2(Me2traz-pba)4]
DOI: 10.1039/C3ta15331b
Adsorbate N-Butane: InChIKey IJDNQMDRQITEOD-UHFFFAOYSA-N
Temperature: 343 K
Tabular data in the source: 0
pressure (bar)	uptake (mmol/g)
0.00114521	0.123973
0.00426986	0.282047
0.00687174	0.33953
0.0119119	0.425903
0.0156833	0.469089
0.0224082	0.52668
0.0580269	0.699558
0.112455	0.800308
0.174329	0.930214
0.280453	1.10352
0.511705	1.43597
1.69118	2.05744
2.14521	2.11514
11.5867	2.6493
31.6068	2.83661
57.2836	2.9519
113.514	3.0671
221.595	3.21128
353.965	3.28325
