Adsorption isotherm of 1-butene on [Cu4(mu4-O)(mu2-OH)2(Me2traz-pba)4]
DOI: 10.1039/C3ta15331b
Adsorbate 1-butene: InChIKey VXNZUUAINFGPBY-UHFFFAOYSA-N
Temperature: 313 K
Tabular data in the source: 0
pressure (bar)	uptake (mmol/g)
0.000146535	0.143236
0.000355173	0.175066
0.000826609	0.286472
0.00131361	0.366048
0.00300793	0.509284
0.00597074	0.62069
0.0119742	0.763926
0.0204818	0.907162
0.0334954	1.03448
0.0615357	1.19363
0.339539	2.4191
0.886217	2.72149
1.36038	2.81698
3.70587	3.08753
9.22784	3.32626
26.9985	3.61273
49.4937	3.72414
85.3493	3.85146
122.979	3.91512
199.063	4.01061
324.848	4.09019
