Adsorption isotherm of N-Butane on [Cu4(mu4-O)(mu2-OH)2(Me2traz-pba)4]
DOI: 10.1039/C3ta15331b
Adsorbate N-Butane: InChIKey IJDNQMDRQITEOD-UHFFFAOYSA-N
Temperature: 313 K
Tabular data in the source: 0
pressure (bar)	uptake (mmol/g)
3.88338e-05	0.0546242
0.000168047	0.154653
0.000520415	0.211548
0.000837529	0.269032
0.00140928	0.355431
0.00240709	0.412861
0.00411058	0.528203
0.00839152	0.643384
0.0138091	0.715325
0.0197303	0.772916
0.02716	0.845018
0.0390899	0.946035
0.0514561	1.04713
0.0815648	1.1915
0.352201	1.92855
1.7009	2.56416
2.65662	2.67958
4.60511	2.76595
7.5216	2.85238
24.707	3.08295
57.6581	3.22697
105.283	3.32777
