Adsorption isotherm of Nitrogen on [Cu4(mu4-O)(mu2-OH)2(Me2traz-pba)4]
DOI: 10.1039/C3ta15331b
Adsorbate Nitrogen: InChIKey IJGRMHOSHXDMSA-UHFFFAOYSA-N
Temperature: 77 K
Tabular data in the source: 0
pressure (bar)	uptake (cm3(STP)/g)
0.00106841	179.613
0.012618	197.231
0.047069	290.856
0.143808	335.925
0.24261	355.648
0.293008	359.998
0.337587	364.355
0.372487	365.418
0.395756	365.391
0.409326	366.478
0.442286	367.542
0.467491	368.616
0.486876	369.696
0.504324	370.778
0.523715	370.756
0.541168	370.736
0.562488	372.916
0.581885	371.792
0.603211	372.87
0.622602	372.848
0.641994	372.826
0.659442	373.908
0.676894	373.888
0.69822	374.966
0.719546	376.043
0.737003	374.922
0.756394	374.9
0.779659	375.975
0.795168	377.06
0.828133	377.022
0.832017	375.916
0.853348	375.892
0.876613	376.967
0.905701	376.934
0.934783	378.003
0.95029	379.087
