Adsorption isotherm of N-Butane on [Cu4(mu4-O)(mu2-OH)2(Me2traz-pba)4]
DOI: 10.1039/C3ta15331b
Adsorbate N-Butane: InChIKey IJDNQMDRQITEOD-UHFFFAOYSA-N
Temperature: 283 K
Tabular data in the source: 0
pressure (bar)	uptake (mmol/g)
1.28198e-05	0.0700975
0.000110757	0.270849
0.000332805	0.443594
0.000585504	0.558909
0.000887851	0.616446
0.00146104	0.688387
0.00195225	0.760516
0.00236854	0.789298
0.00338415	0.846888
0.00641148	1.049
0.0132835	1.19313
0.0226755	1.42429
0.0595236	1.97358
0.144009	2.45055
0.268831	2.62372
0.455753	2.69564
0.951152	2.88319
3.10163	3.07034
7.45676	3.21433
47.8256	3.53117
114.979	3.67516
199.31	3.76153
282.651	3.83361
416.045	3.89117
