Adsorption isotherm of Isobutane on [Cu4(mu4-O)(mu2-OH)2(Me2traz-pba)4]
DOI: 10.1039/C3ta15331b
Adsorbate Isobutane: InChIKey NNPPMTNAJDCUHE-UHFFFAOYSA-N
Temperature: 343 K
Tabular data in the source: 0
pressure (bar)	uptake (mmol/g)
0.000574751	0.0636117
0.0013351	0.131946
0.0029189	0.214143
0.00488724	0.282758
0.00718275	0.337673
0.011739	0.461553
0.0212717	0.723457
0.0333242	0.944052
0.0500349	1.13706
0.0690071	1.2749
0.0934624	1.45418
0.113833	1.56451
0.157946	1.68853
0.442864	1.95006
0.759766	2.08771
1.08658	2.14265
1.57772	2.22519
2.07903	2.2802
2.48628	2.30767
3.20745	2.34889
3.91805	2.39015
4.78619	2.43141
5.30579	2.44513
6.30696	2.48642
6.99182	2.50014
7.96526	2.51384
9.87893	2.58271
11.2546	2.59641
19.0173	2.70645
46.3778	2.91286
69.6242	2.98157
98.9715	3.05032
133.22	3.11912
174.49	3.18795
290.396	3.27038
390.886	3.33918
