Adsorption isotherm of Isobutene on [Cu4(mu4-O)(mu2-OH)2(Me2traz-pba)4]
DOI: 10.1039/C3ta15331b
Adsorbate Isobutene: InChIKey VQTUBCCKSQIDNK-UHFFFAOYSA-N
Temperature: 283 K
Tabular data in the source: 0
pressure (bar)	uptake (mmol/g)
9.66896e-05	0.251347
0.00014951	0.250852
0.000404939	0.377991
0.000775247	0.468876
0.00144842	0.614762
0.00526302	0.979787
0.00843463	1.14417
0.0285008	1.50928
0.0899456	1.78284
0.172763	2.11194
0.283563	2.38625
0.668883	2.82506
0.883344	2.9347
1.17609	3.02599
2.89088	3.20822
25.5976	3.93872
60.675	4.12099
150.356	4.28488
375.638	4.43043
824.86	4.53949
1579.17	4.63037
2060.77	4.68504
