Adsorption isotherm of Nitrogen on [Cu4(mu4-O)(mu2-OH)2(Me2traz-pba)4]
DOI: 10.1039/C3ta15331b
Adsorbate Nitrogen: InChIKey IJGRMHOSHXDMSA-UHFFFAOYSA-N
Temperature: 77 K
Tabular data in the source: 0
pressure (bar)	uptake (cm3(STP)/g)
0.0992505	327.16
0.120549	333.748
0.147671	339.226
0.168976	344.712
0.194168	347.989
0.219361	351.266
0.240677	354.548
0.267803	358.925
0.339532	363.251
0.387995	366.502
0.432591	367.553
0.486866	371.9
0.531456	374.053
0.577985	376.204
0.626465	376.149
0.674929	379.4
0.727286	379.34
0.769942	380.394
0.816477	381.443
0.870769	382.483
0.919243	383.53
0.944436	386.808
