Adsorption isotherm of N-Butane on [Cu4(mu4-O)(mu2-OH)2(Me2traz-pba)4]
DOI: 10.1039/C3ta15331b
Adsorbate N-Butane: InChIKey IJDNQMDRQITEOD-UHFFFAOYSA-N
Temperature: 343 K
Tabular data in the source: 0
pressure (bar)	uptake (mmol/g)
0.000592216	0.109823
0.000751035	0.10961
0.00181579	0.181034
0.0046916	0.295726
0.00881021	0.396262
0.0138442	0.496957
0.0202033	0.568833
0.0281762	0.727407
0.0465818	0.958044
0.0786926	1.26087
0.14858	1.57805
0.478278	2.01029
0.839982	2.12533
1.21658	2.21165
1.71045	2.29801
2.201	2.32667
3.95212	2.45613
5.08557	2.48479
13.7278	2.6861
26.9457	2.81548
51.344	2.94489
77.1863	3.01674
90.8573	3.04548
169.336	3.16046
276.191	3.24668
