Adsorption isotherm of Isobutane on [Cu4(mu4-O)(mu2-OH)2(Me2traz-pba)4]
DOI: 10.1039/C3ta15331b
Adsorbate Isobutane: InChIKey NNPPMTNAJDCUHE-UHFFFAOYSA-N
Temperature: 283 K
Tabular data in the source: 0
pressure (bar)	uptake (mmol/g)
3.97018e-05	0.159636
0.000129843	0.309726
0.000316745	0.44649
0.00238653	0.927055
0.00323938	1.16163
0.00613196	1.50627
0.0150092	1.94728
0.0272295	2.13987
0.0775013	2.35934
0.140168	2.49662
0.194872	2.55137
0.284354	2.61987
0.41243	2.70221
0.51428	2.75715
0.627841	2.7983
0.782889	2.85324
0.997103	2.92197
1.27761	2.97686
4.17907	3.25141
10.2877	3.42965
17.3564	3.53939
25.4789	3.59405
89.3306	3.77168
208.877	3.88086
306.634	3.93552
431.479	3.96259
789.823	4.07219
1152.5	4.14068
