Adsorption isotherm of Isobutene on [Cu4(mu4-O)(mu2-OH)2(Me2traz-pba)4]
DOI: 10.1039/C3ta15331b
Adsorbate Isobutene: InChIKey VQTUBCCKSQIDNK-UHFFFAOYSA-N
Temperature: 343 K
Tabular data in the source: 0
pressure (bar)	uptake (mmol/g)
0.00041358	0.0847734
0.00339787	0.247301
0.00825296	0.374564
0.0165811	0.520368
0.0224381	0.574997
0.0490591	0.775679
0.102991	1.06803
0.322062	1.68977
1.0404	2.23817
3.54421	2.58495
7.00584	2.76742
13.8487	2.94989
21.3211	3.04102
58.6638	3.29642
93.6591	3.38751
143.028	3.49698
199.086	3.5699
297.989	3.64274
374.999	3.69745
545.695	3.752
706.334	3.825
864.172	3.86142
