Adsorption isotherm of 1-butene on [Cu4(mu4-O)(mu2-OH)2(Me2traz-pba)4]
DOI: 10.1039/C3ta15331b
Adsorbate 1-butene: InChIKey VXNZUUAINFGPBY-UHFFFAOYSA-N
Temperature: 343 K
Tabular data in the source: 0
pressure (bar)	uptake (mmol/g)
0.000425785	0.0795756
0.000698988	0.0954907
0.00120022	0.127321
0.00185345	0.159151
0.00239671	0.175066
0.00342546	0.254642
0.0042007	0.270557
0.00534441	0.318302
0.00605277	0.334218
0.00954101	0.429708
0.0170329	0.541114
0.0198088	0.557029
0.0283114	0.636605
0.0360197	0.68435
0.0589057	0.811671
0.0749438	0.859416
0.151269	1.14589
0.350114	1.52785
1.15923	2.40318
2.26882	2.59416
3.71039	2.72149
13.4502	3.0557
39.3523	3.34218
72.8853	3.48541
187.486	3.66048
