Adsorption isotherm of 1-butene on [Cu4(mu4-O)(mu2-OH)2(Me2traz-pba)4]
DOI: 10.1039/C3ta15331b
Adsorbate 1-butene: InChIKey VXNZUUAINFGPBY-UHFFFAOYSA-N
Temperature: 283 K
Tabular data in the source: 0
pressure (bar)	uptake (mmol/g)
5.40481e-05	0.175066
9.98895e-05	0.270557
0.000167386	0.350133
0.000315101	0.461538
0.00142368	0.779841
0.00299274	0.986737
0.00511906	1.12997
0.0105647	1.32095
0.0302445	1.90981
0.08468	2.59416
0.209604	2.89655
0.640044	3.15119
2.84525	3.50133
7.47085	3.74005
19.4156	3.94695
51.8143	4.15385
78.7263	4.21751
127.432	4.313
200.101	4.51989
560.26	5.20424
776.801	5.39523
1008.81	5.50663
