Adsorption isotherm of Nitrogen on [Cu4(mu4-O)(mu2-OH)2(Me2traz-pba)4]
DOI: 10.1039/C3ta15331b
Adsorbate Nitrogen: InChIKey IJGRMHOSHXDMSA-UHFFFAOYSA-N
Temperature: 77 K
Tabular data in the source: 0
pressure (bar)	uptake (cm3(STP)/g)
0.00308238	164.184
0.00513374	141.041
0.00718509	117.898
0.00727056	100.267
0.0339382	199.411
0.0804676	201.562
0.103732	202.637
0.13281	204.808
0.156069	206.986
0.179328	209.163
0.210365	206.924
0.227818	206.904
0.25495	210.179
0.28017	207.947
0.351915	208.967
0.390693	210.025
0.439167	211.072
0.44672	252.937
0.492967	313.49
0.531617	340.995
0.589712	357.458
0.63428	364.019
0.686617	368.367
0.711809	371.644
0.756416	370.492
0.820392	373.725
0.849475	374.794
0.965793	381.274
