Adsorption isotherm of 1-butene on [Cu4(mu4-O)(mu2-OH)2(Me2traz-pba)4]
DOI: 10.1039/C3ta15331b
Adsorbate 1-butene: InChIKey VXNZUUAINFGPBY-UHFFFAOYSA-N
Temperature: 343 K
Tabular data in the source: 0
pressure (bar)	uptake (mmol/g)
0.000130164	0.0636605
0.000540555	0.0795756
0.00145994	0.159151
0.00327503	0.238727
0.00763843	0.397878
0.0124649	0.477454
0.0158587	0.525199
0.0230866	0.62069
0.0403089	0.827586
0.0914406	1.35279
0.204089	1.90981
0.356336	2.11671
0.679172	2.30769
1.28127	2.46684
1.91536	2.56233
3.13228	2.68966
5.26017	2.81698
7.26206	2.91247
11.6595	3.02387
19.5803	3.15119
26.3245	3.24668
34.3922	3.29443
44.9314	3.34218
58.2264	3.40584
78.9205	3.48541
116.772	3.54907
151.321	3.61273
