Adsorption isotherm of Isobutene on [Cu4(mu4-O)(mu2-OH)2(Me2traz-pba)4]
DOI: 10.1039/C3ta15331b
Adsorbate Isobutene: InChIKey VQTUBCCKSQIDNK-UHFFFAOYSA-N
Temperature: 283 K
Tabular data in the source: 0
pressure (bar)	uptake (mmol/g)
6.40752e-05	0.196841
0.000517666	0.560958
0.00217512	0.925818
0.0100653	1.40052
0.0269101	1.80254
0.0992801	2.46074
0.266582	2.77114
0.450288	2.89881
0.698924	2.97161
0.972859	3.04453
2.08483	3.20859
4.2713	3.55594
6.65488	3.70203
17.3069	3.92084
46.119	4.08465
663.346	4.53973
930.872	4.59432
1190.61	4.61237
1566.39	4.6487
