Adsorption isotherm of N-Butane on [Cu4(mu4-O)(mu2-OH)2(Me2traz-pba)4]
DOI: 10.1039/C3ta15331b
Adsorbate N-Butane: InChIKey IJDNQMDRQITEOD-UHFFFAOYSA-N
Temperature: 313 K
Tabular data in the source: 0
pressure (bar)	uptake (mmol/g)
7.30012e-05	0.0828129
0.000265473	0.168314
0.00066118	0.23971
0.00127905	0.34022
0.00196586	0.426492
0.00588932	0.598824
0.00974155	0.771688
0.0352194	1.49268
0.0811607	1.93966
0.11325	2.04047
0.144634	2.08358
0.190283	2.12666
0.241179	2.18422
0.283896	2.21296
0.414305	2.28483
1.36565	2.55818
3.4235	2.73067
5.92557	2.81684
8.908	2.88869
40.7071	3.16174
79.9043	3.29112
130.326	3.37734
153.409	3.40608
283.91	3.47774
463.063	3.56396
