Adsorption isotherm of Isobutene on [Cu4(mu4-O)(mu2-OH)2(Me2traz-pba)4]
DOI: 10.1039/C3ta15331b
Adsorbate Isobutene: InChIKey VQTUBCCKSQIDNK-UHFFFAOYSA-N
Temperature: 313 K
Tabular data in the source: 0
pressure (bar)	uptake (mmol/g)
2.19999e-05	0.0697842
8.36585e-05	0.0865903
0.000123737	0.10447
0.000263154	0.121937
0.000621398	0.230907
0.00111533	0.303541
0.00286611	0.467389
0.00510263	0.558357
0.0372509	1.06919
0.0629221	1.19686
0.140362	1.43417
0.309393	1.61652
1.16458	2.31135
4.06097	2.93296
26.1571	3.48058
50.6781	3.62643
104.73	3.79052
204.564	3.91803
306.189	3.99087
471.411	4.08201
581.447	4.10009
1313.29	4.22744
2174.3	4.31849
