Adsorption isotherm of Isobutene on [Cu4(mu4-O)(mu2-OH)2(Me2traz-pba)4]
DOI: 10.1039/C3ta15331b
Adsorbate Isobutene: InChIKey VQTUBCCKSQIDNK-UHFFFAOYSA-N
Temperature: 313 K
Tabular data in the source: 0
pressure (bar)	uptake (mmol/g)
0.000211626	0.122184
0.000937713	0.285413
0.00335405	0.522184
0.00937971	0.74091
0.0338063	1.12427
0.113248	1.67263
0.296606	2.20295
0.8192	2.53164
2.25398	2.78703
6.7747	3.1706
13.611	3.3164
31.7424	3.53534
62.0012	3.66285
151.168	3.8634
266.95	3.97271
402.828	4.02721
598.067	4.11839
786.828	4.15472
1221.29	4.22752
1762.83	4.3004
