Adsorption isotherm of Isobutane on [Cu4(mu4-O)(mu2-OH)2(Me2traz-pba)4]
DOI: 10.1039/C3ta15331b
Adsorbate Isobutane: InChIKey NNPPMTNAJDCUHE-UHFFFAOYSA-N
Temperature: 313 K
Tabular data in the source: 0
pressure (bar)	uptake (mmol/g)
0.000144268	0.10623
0.000428381	0.174353
0.00094517	0.297977
0.00412544	0.545316
0.00584709	0.68313
0.0153393	1.09664
0.0411106	1.64825
0.0770196	1.89631
0.103672	1.96511
0.135788	2.03394
0.178933	2.08895
0.213983	2.11641
0.261391	2.15768
0.32224	2.24037
0.387695	2.25402
0.925614	2.44663
2.36222	2.61156
4.16466	2.74919
6.21455	2.83171
9.27321	2.91424
24.5437	3.12057
43.2713	3.2582
71.1492	3.36826
99.0148	3.42322
168.322	3.51945
223.152	3.56064
344.271	3.62933
516.833	3.69803
780.585	3.75293
