Adsorption isotherm of 1-butene on [Cu4(mu4-O)(mu2-OH)2(Me2traz-pba)4]
DOI: 10.1039/C3ta15331b
Adsorbate 1-butene: InChIKey VXNZUUAINFGPBY-UHFFFAOYSA-N
Temperature: 313 K
Tabular data in the source: 0
pressure (bar)	uptake (mmol/g)
0.000333388	0.143236
0.000803249	0.238727
0.00163729	0.350133
0.00300148	0.461538
0.00862166	0.732095
0.0247237	1.1618
0.0537376	1.71883
0.0981798	2.14854
0.117501	2.2122
0.151036	2.29178
0.214116	2.38727
0.328685	2.48276
0.537527	2.61008
1.04129	2.76923
2.52505	3.00796
7.37191	3.24668
18.6973	3.50133
34.9873	3.67639
53.1582	3.74005
75.3616	3.83554
94.1326	3.86737
168.047	3.97878
217.771	4.04244
279.325	4.07427
