Adsorption isotherm of 1-butene on [Cu4(mu4-O)(mu2-OH)2(Me2traz-pba)4]
DOI: 10.1039/C3ta15331b
Adsorbate 1-butene: InChIKey VXNZUUAINFGPBY-UHFFFAOYSA-N
Temperature: 283 K
Tabular data in the source: 0
pressure (bar)	uptake (mmol/g)
2.43422e-05	0.127321
0.000256951	0.445623
0.000673225	0.636605
0.00201832	0.875332
0.00506908	1.30504
0.00837923	1.67109
0.0123033	1.95756
0.0185108	2.19629
0.0366819	2.46684
0.0904076	2.67374
0.319146	3.00796
0.388213	3.03979
1.23991	3.31034
5.32415	3.67639
13.2291	3.86737
21.6347	3.99469
149.682	5.14058
215.675	5.20424
279.492	5.2679
349.108	5.29973
406.004	5.31565
484.853	5.33156
535.895	5.39523
694.464	5.45889
