Adsorption isotherm of N-Butane on [Cu4(mu4-O)(mu2-OH)2(Me2traz-pba)4]
DOI: 10.1039/C3ta15331b
Adsorbate N-Butane: InChIKey IJDNQMDRQITEOD-UHFFFAOYSA-N
Temperature: 283 K
Tabular data in the source: 0
pressure (bar)	uptake (mmol/g)
7.3675e-05	0.249297
0.000209677	0.409051
0.000541677	0.583157
0.00122461	0.728267
0.00195275	0.858626
0.00430631	1.22028
0.00991251	1.72636
0.0171146	2.04448
0.0244163	2.1603
0.0364338	2.24729
0.0962299	2.43585
0.142505	2.53727
0.232482	2.62434
0.453002	2.76931
0.646711	2.82739
0.876597	2.87097
2.26464	3.04508
5.59732	3.19027
11.408	3.30641
19.1721	3.3935
78.435	3.65465
173.444	3.7853
