Adsorption isotherm of Nitrogen on MIL-160(Al)
DOI: 10.1007/s10450-020-00286-5
Article source: Figure 2(c)
Adsorbate Nitrogen: InChIKey IJGRMHOSHXDMSA-UHFFFAOYSA-N
Kind: experiment
Temperature: 303 K
Tabular data in the source: 0
pressure (bar)	uptake (mmol/g)
0.24096	0.05304
1.04819	0.22541
2.0241	0.40663
2.87952	0.55912
4.60843	0.84199
5.93373	1.02983
0.54819	0.1326
1.42169	0.29834
3.81325	0.70939
