Adsorption isotherm of Nitrogen on MIL-160(Al)
DOI: 10.1007/s10450-020-00286-5
Article source: Figure 2(c)
Adsorbate Nitrogen: InChIKey IJGRMHOSHXDMSA-UHFFFAOYSA-N
Kind: experiment
Temperature: 238 K
Tabular data in the source: 0
pressure (bar)	uptake (mmol/g)
0.53012	0.15912
1.48795	0.43315
2.50602	0.69171
3.48193	0.91934
4.3012	1.10497
5.55422	1.36796
0.27108	0.09945
2.3012	0.65856
4.78916	1.21547
