Adsorption isotherm of Water on MIL-160(Al)
DOI: 10.1007/s10450-020-00286-5
Article source: Figure 4(a)
Adsorbate Water: InChIKey XLYOFNOQVPJJNP-UHFFFAOYSA-N
Kind: experiment
Temperature: 303 K
Tabular data in the source: 0
pressure (bar)	uptake (mmol/g)
0.000967	0.82418
0.001862	1.9536
0.00247	3.63248
0.002828	4.91453
0.002971	5.89133
0.003472	8.15018
0.004117	10.5922
0.00469	12.1795
0.005692	13.7668
0.00648	15.9035
0.010489	17.4603
0.018723	18.6508
0.027673	19.5055
0.031754	19.9939
0.001754	2.28938
0.002936	6.62393
0.0121	18.1013
0.018938	19.3834
