Adsorption isotherm of Nitrogen on MIL-160(Al)
DOI: 10.1007/s10450-020-00286-5
Article source: Figure S6
Adsorbate Nitrogen: InChIKey IJGRMHOSHXDMSA-UHFFFAOYSA-N
Kind: experiment
Temperature: 77 K
Tabular data in the source: 0
pressure (bar)	uptake (cm3(STP)/g)
0.000993	225.036
0.000993	230.216
0.031634	244.604
0.050419	246.331
0.06425	247.482
0.086005	248.633
0.101821	249.209
0.12159	249.784
0.142351	250.36
0.16212	251.511
0.182881	251.799
0.20265	252.086
0.228356	252.662
0.254052	253.237
0.278765	253.237
0.303479	254.676
0.33116	254.676
0.356867	254.964
0.380587	256.115
0.406293	256.691
0.431989	256.691
0.457695	257.266
0.483391	257.266
0.509097	257.266
0.532818	258.417
0.555555	258.993
0.582244	259.568
0.60795	260.144
0.633656	260.719
0.659352	261.871
0.685058	262.446
0.710754	263.597
0.732509	264.748
0.757222	266.475
0.781935	267.914
0.805655	270.216
0.837289	273.957
0.856075	276.259
0.885732	280.576
0.911429	285.468
0.936142	291.223
0.957896	294.676
0.971727	298.705
0.987544	305.612
0.997433	311.367
1.00336	318.273
1.0093	323.453
1.01325	326.906
0.303479	254.676
0.33116	254.964
0.354881	255.252
0.38158	256.403
0.41222	256.691
0.431989	257.266
0.455719	257.266
0.470543	258.417
0.489329	258.993
0.507121	260.144
0.532818	260.719
0.558524	261.295
0.58423	261.871
0.609926	263.022
0.636615	263.597
0.662321	264.748
0.68901	265.899
0.71273	267.626
0.740412	269.928
0.766118	272.806
0.79379	276.259
0.813569	279.137
0.839265	282.59
0.868923	286.043
0.890667	290.072
0.918349	294.676
0.93219	299.281
0.949983	302.734
0.963824	306.187
0.981616	311.942
0.993481	316.547
0.999409	321.151
1.01127	326.331
