Adsorption isotherm of Nitrogen on MIL-160(Al)
DOI: 10.1007/s10450-020-00286-5
Article source: Figure 2(c)
Adsorbate Nitrogen: InChIKey IJGRMHOSHXDMSA-UHFFFAOYSA-N
Kind: experiment
Temperature: 323 K
Tabular data in the source: 0
pressure (bar)	uptake (mmol/g)
0.53012	0.07956
1.46988	0.20994
2.96386	0.41547
3.15663	0.43315
4.92771	0.66298
5.63253	0.7337
0.24096	0.05304
1.98795	0.29613
3.86747	0.53481
