Adsorption isotherm of Water on MIL-160(Al)
DOI: 10.1007/s10450-020-00286-5
Article source: Figure 4(b)
Adsorbate Water: InChIKey XLYOFNOQVPJJNP-UHFFFAOYSA-N
Kind: experiment
Temperature: 343 K
Tabular data in the source: 0
pressure (bar)	uptake (mmol/g)
0.01223	0.77519
0.01697	1.29199
0.02161	1.87339
0.02438	2.32558
0.03026	3.39147
0.00328	0.323
0.01339	1.00129
0.02723	2.71318
