Adsorption isotherm of Water on MIL-160(Al)
DOI: 10.1007/s10450-020-00286-5
Article source: Figure 4(a)
Adsorbate Water: InChIKey XLYOFNOQVPJJNP-UHFFFAOYSA-N
Kind: experiment
Temperature: 343 K
Tabular data in the source: 0
pressure (bar)	uptake (mmol/g)
0.011707	0.88523
0.016127	1.28205
0.02133	1.86203
0.023671	2.35043
0.029394	3.38828
0.00286	0.33578
0.013007	1.06838
0.026271	2.71673
