Adsorption isotherm of Carbon Dioxide on MIL-160(Al)
DOI: 10.1007/s10450-020-00286-5
Article source: Figure 2(a)
Adsorbate Carbon Dioxide: InChIKey CURLTUGMZLYLDI-UHFFFAOYSA-N
Kind: experiment
Temperature: 283 K
Tabular data in the source: 0
pressure (bar)	uptake (mmol/g)
0.20906	2.19718
1.08711	4.43192
2.12718	5.0892
2.97909	5.4554
3.99303	5.76526
5.73868	6.14085
0.52265	3.64319
1.49477	4.82629
4.64111	5.93427
