Adsorption isotherm of Water on MIL-160(Al)
DOI: 10.1007/s10450-020-00286-5
Article source: Figure 4(b)
Adsorbate Water: InChIKey XLYOFNOQVPJJNP-UHFFFAOYSA-N
Kind: experiment
Temperature: 303 K
Tabular data in the source: 0
pressure (bar)	uptake (mmol/g)
0.00051	0.3876
0.00099	0.77519
0.00193	1.84109
0.00248	3.61757
0.00285	4.84496
0.00303	5.81395
0.0035	8.10724
0.00423	10.5297
0.00482	12.1447
0.00584	13.7597
0.00664	15.8915
0.01062	17.4096
0.01894	18.6047
0.02796	19.4767
0.03208	19.9935
0.00193	2.19638
0.0031	6.55685
0.01226	18.1202
0.01912	19.3475
