Adsorption isotherm of Oxygen on MIL-160(Al)
DOI: 10.1007/s10450-020-00286-5
Article source: Figure 2(b)
Adsorbate Oxygen: InChIKey MYMOFIZGZYHOMD-UHFFFAOYSA-N
Kind: experiment
Temperature: 303 K
Tabular data in the source: 0
pressure (bar)	uptake (mmol/g)
0.54201	0.11823
2.2168	0.44138
3.10027	0.59901
3.86992	0.73695
4.74797	0.8867
5.18157	0.94975
0.29268	0.07094
1.57724	0.31921
4.1084	0.77241
