Adsorption isotherm of Carbon Dioxide on MIL-160(Al)
DOI: 10.1007/s10450-020-00286-5
Article source: Figure S7
Adsorbate Carbon Dioxide: InChIKey CURLTUGMZLYLDI-UHFFFAOYSA-N
Kind: experiment
Temperature: 273 K
Tabular data in the source: 0
pressure (bar)	uptake (cm3(STP)/g)
0.026487	11.7889
0.037639	16.8915
0.051231	22.522
0.070748	29.5601
0.106993	40.8211
0.140101	49.6188
0.169376	55.6012
0.207015	61.5836
0.242911	66.5103
0.295885	72.4927
0.345722	76.3636
0.417863	81.2903
0.484429	85.1613
0.592816	89.912
0.695626	93.2551
0.784496	96.0704
0.870578	98.3578
0.958054	100.469
1.04692	102.053
