Adsorption isotherm of Oxygen on MIL-160(Al)
DOI: 10.1007/s10450-020-00286-5
Article source: Figure 2(b)
Adsorbate Oxygen: InChIKey MYMOFIZGZYHOMD-UHFFFAOYSA-N
Kind: experiment
Temperature: 323 K
Tabular data in the source: 0
pressure (bar)	uptake (mmol/g)
0.50407	0.067
1.51762	0.21872
2.53659	0.36256
3.46341	0.48079
4.97561	0.71527
5.49051	0.76847
2.12466	0.29951
3.93496	0.54384
