Adsorption isotherm of Carbon Dioxide on MIL-160(Al)
DOI: 10.1007/s10450-020-00286-5
Article source: Figure 2(a)
Adsorbate Carbon Dioxide: InChIKey CURLTUGMZLYLDI-UHFFFAOYSA-N
Kind: experiment
Temperature: 323 K
Tabular data in the source: 0
pressure (bar)	uptake (mmol/g)
0.49129	1.35211
1.82927	3.28638
2.51916	3.73709
2.78571	3.88732
3.83624	4.24413
4.91812	4.50704
5.61324	4.65728
0.41289	1.14554
1.28049	2.76056
3.1777	4.01878
3.95122	4.26291
