Adsorption isotherm of Carbon Dioxide on MIL-160(Al)
DOI: 10.1007/s10450-020-00286-5
Article source: Figure 2(a)
Adsorbate Carbon Dioxide: InChIKey CURLTUGMZLYLDI-UHFFFAOYSA-N
Kind: experiment
Temperature: 303 K
Tabular data in the source: 0
pressure (bar)	uptake (mmol/g)
1.3223	3.77465
1.49477	3.97183
2.52439	4.5446
3.67944	4.92019
3.95122	5.02347
4.58885	5.1831
5.6446	5.38967
0.11498	0.73239
0.55401	2.89202
1.01916	3.46479
1.80836	4.20657
2.86411	4.75117
