Adsorption isotherm of Oxygen on MIL-160(Al)
DOI: 10.1007/s10450-020-00286-5
Article source: Figure 2(b)
Adsorbate Oxygen: InChIKey MYMOFIZGZYHOMD-UHFFFAOYSA-N
Kind: experiment
Temperature: 283 K
Tabular data in the source: 0
pressure (bar)	uptake (mmol/g)
0.51491	0.15764
1.50136	0.43941
2.95935	0.82365
3.87534	1.04039
4.74255	1.2335
5.99458	1.48966
0.17344	0.06897
2.44444	0.70542
4.70461	1.2335
