Adsorption isotherm of Water on MIL-160(Al)
DOI: 10.1007/s10450-020-00286-5
Article source: Figure 4(a)
Adsorbate Water: InChIKey XLYOFNOQVPJJNP-UHFFFAOYSA-N
Kind: experiment
Temperature: 323 K
Tabular data in the source: 0
pressure (bar)	uptake (mmol/g)
0.001355	0.70208
0.005942	1.80098
0.008757	2.86935
0.009904	3.87668
0.011364	5.34188
0.012823	7.05128
0.01397	8.27228
0.015742	10.1038
0.017202	11.0806
0.020746	12.7289
0.026897	14.1941
0.031588	14.9267
0.006255	1.98413
0.011364	5.76923
0.021372	12.9731
