Adsorption isotherm of Water on MIL-160(Al)
DOI: 10.1007/s10450-020-00286-5
Article source: Figure 4(b)
Adsorbate Water: InChIKey XLYOFNOQVPJJNP-UHFFFAOYSA-N
Kind: experiment
Temperature: 323 K
Tabular data in the source: 0
pressure (bar)	uptake (mmol/g)
0.00139	0.5168
0.00617	1.42119
0.0088	2.81008
0.01	3.81137
0.01146	5.36176
0.01285	6.97674
0.01401	8.17183
0.01599	10.0452
0.01737	11.0465
0.02088	12.7584
0.02708	14.1473
0.03182	14.9225
0.00642	1.87339
0.01157	5.74935
0.02153	12.9845
