Adsorption isotherm of Nitrogen on {[Mg2(HL)2(H2O)4]*H2O}n
DOI: 10.1039/C3dt51509e
Adsorbate Nitrogen: InChIKey IJGRMHOSHXDMSA-UHFFFAOYSA-N
Temperature: 77 K
Tabular data in the source: 0
pressure (bar)	uptake (cm3(STP)/g)
0.05521	1.71201
0.106695	2.12389
0.15675	2.32983
0.229687	2.74171
0.305485	3.15359
0.379853	3.56547
0.45422	3.77141
0.528587	4.18329
0.608675	4.28626
0.680183	4.59517
0.75741	4.90408
0.830348	5.11003
0.907575	5.41894
0.9562	6.03676
1.00053	7.37537
