Adsorption isotherm of Hydrogen on {[Mg2(HL)2(H2O)4]*H2O}n
DOI: 10.1039/C3dt51509e
Adsorbate Hydrogen: InChIKey UFHFLCQGNIYNRP-UHFFFAOYSA-N
Temperature: 77 K
Tabular data in the source: 0
pressure (bar)	uptake (cm3(STP)/g)
0.045199	29.2051
0.0981143	35.5892
0.143879	39.811
0.193934	42.5912
0.246849	45.3714
0.298334	47.6368
0.346959	49.5932
0.397014	51.5496
0.495694	54.4328
0.598664	56.9041
0.647289	58.3457
0.748829	61.2288
0.794594	62.0526
0.896134	63.8031
0.991954	65.2447
