Adsorption isotherm of Carbon Dioxide on {[Mg2(HL)2(H2O)4]*H2O}n
DOI: 10.1039/C3dt51509e
Adsorbate Carbon Dioxide: InChIKey CURLTUGMZLYLDI-UHFFFAOYSA-N
Temperature: 298 K
Tabular data in the source: 0
pressure (bar)	uptake (cm3(STP)/g)
0.0280436	0.0499371
0.0804806	0.294643
0.154766	0.714139
0.207203	1.20355
0.253086	1.60557
0.279304	1.76288
0.329556	1.85027
0.401657	2.4096
0.475943	2.88153
0.556783	3.54574
0.628884	4.22742
0.700985	4.83918
0.78401	5.69565
0.851741	6.41229
0.904178	6.9891
0.952245	7.51347
0.993758	7.9854
