Adsorption isotherm of Ethanol, Quercetin, Water on NH2-functionalized silica nanoparticles
DOI: 10.1039/c7nj01489a
Article source: Figure 7
Adsorbate Ethanol: InChIKey LFQSCWFLJHTTHZ-UHFFFAOYSA-N
Adsorbate Quercetin: InChIKey REFJWTPEDVJJIY-UHFFFAOYSA-N
Adsorbate Water: InChIKey XLYOFNOQVPJJNP-UHFFFAOYSA-N
Kind: experiment
Temperature: 298 K
Tabular data in the source: 0
pressure (bar)	Ethanol fraction	Ethanol uptake (mg/g)	Quercetin fraction	Quercetin uptake (mg/g)	Water fraction	Water uptake (mg/g)	total uptake (mg/g)
1.01325			8.75064	0.250294			
1.01325			10.5337	0.281022			
1.01325			12.0401	0.404166			
1.01325			13.0698	0.390391			
1.01325			14.0133	0.377964			
1.01325			15.4174	0.520188			
1.01325			26.3639	0.755805			
1.01325			34.8233	1.01786			
