Adsorption isotherm of Ethanol, Quercetin, Water on NH2-functionalized silica nanoparticles
DOI: 10.1039/c7nj01489a
Article source: Figure 7
Adsorbate Ethanol: InChIKey LFQSCWFLJHTTHZ-UHFFFAOYSA-N
Adsorbate Quercetin: InChIKey REFJWTPEDVJJIY-UHFFFAOYSA-N
Adsorbate Water: InChIKey XLYOFNOQVPJJNP-UHFFFAOYSA-N
Kind: experiment
Temperature: 298 K
Tabular data in the source: 0
pressure (bar)	Ethanol fraction	Ethanol uptake (mg/g)	Quercetin fraction	Quercetin uptake (mg/g)	Water fraction	Water uptake (mg/g)	total uptake (mg/g)
1.01325			2.99316	0.148974			
1.01325			4.1686	0.281333			
1.01325			6.78438	0.486844			
1.01325			9.42258	0.694928			
1.01325			9.91494	0.924805			
1.01325			11.5534	0.974698			
