Adsorption isotherm of Ethanol, Quercetin, Water on NH2-functionalized silica nanoparticles
DOI: 10.1039/c7nj01489a
Article source: Figure 7
Adsorbate Ethanol: InChIKey LFQSCWFLJHTTHZ-UHFFFAOYSA-N
Adsorbate Quercetin: InChIKey REFJWTPEDVJJIY-UHFFFAOYSA-N
Adsorbate Water: InChIKey XLYOFNOQVPJJNP-UHFFFAOYSA-N
Kind: experiment
Temperature: 298 K
Tabular data in the source: 0
pressure (bar)	Ethanol fraction	Ethanol uptake (mg/g)	Quercetin fraction	Quercetin uptake (mg/g)	Water fraction	Water uptake (mg/g)	total uptake (mg/g)
1.01325			2.7607	0.248136			
1.01325			5.10352	0.581527			
1.01325			5.9888	0.808519			
1.01325			7.58665	0.887687			
1.01325			8.1197	1.19517			
1.01325			10.2419	1.60465			
