Adsorption isotherm of Ethanol, Quercetin, Water on NH2-functionalized silica nanoparticles
DOI: 10.1039/c7nj01489a
Article source: Figure 7
Adsorbate Ethanol: InChIKey LFQSCWFLJHTTHZ-UHFFFAOYSA-N
Adsorbate Quercetin: InChIKey REFJWTPEDVJJIY-UHFFFAOYSA-N
Adsorbate Water: InChIKey XLYOFNOQVPJJNP-UHFFFAOYSA-N
Kind: experiment
Temperature: 298 K
Tabular data in the source: 0
pressure (bar)	Ethanol fraction	Ethanol uptake (mg/g)	Quercetin fraction	Quercetin uptake (mg/g)	Water fraction	Water uptake (mg/g)	total uptake (mg/g)
1.01325			3.48073	0.099933			
1.01325			5.05324	0.185956			
1.01325			6.2926	0.345366			
1.01325			7.87862	0.419643			
1.01325			8.42326	0.542713			
1.01325			9.1846	0.556878			
1.01325			10.6219	0.675383			
1.01325			11.949	0.813093			
1.01325			13.6994	0.877566			
