Adsorption isotherm of Carbon Dioxide on UiO-66(Zr)
DOI: 10.1002/chem.201003596
Adsorbate Carbon Dioxide: InChIKey CURLTUGMZLYLDI-UHFFFAOYSA-N
Temperature: 303 K
Tabular data in the source: 0
pressure (bar)	uptake (cm3(STP)/cm3)
0.189437	38.2144
0.689717	49.3552
0.860315	58.9074
1.52648	72.4349
2.02676	83.5757
3.84891	105.848
5.17026	116.183
7.6455	132.079
9.95223	141.607
12.7509	149.537
15.2188	154.286
17.5229	159.833
19.9903	163.785
24.9235	169.303
30.1843	173.224
35.117	177.945
40.2119	179.479
44.9792	182.609
50.0746	184.94
55.0052	186.476
59.9358	188.013
