Adsorption isotherm of Carbon Dioxide on UiO-66(Zr)
DOI: 10.1002/chem.201003596
Adsorbate Carbon Dioxide: InChIKey CURLTUGMZLYLDI-UHFFFAOYSA-N
Temperature: 303 K
Tabular data in the source: 0
pressure (bar)	uptake (cm3(STP)/cm3)
0.332299	5.56947
0.504467	17.5102
0.675064	27.0624
1.01207	39.7974
1.51131	49.3459
2.17538	59.6886
3.1749	80.3779
4.1697	93.9016
5.16503	108.222
5.82858	117.768
6.98456	126.513
8.14107	136.054
10.2856	148.768
11.935	158.304
13.9121	166.243
15.8881	172.59
18.0279	178.139
22.1411	186.054
26.2522	190.784
30.2	197.109
34.803	200.241
39.8995	204.164
44.9949	206.495
49.926	208.827
55.0214	211.158
59.9515	211.898
