Adsorption isotherm of Methane on UiO-66(Zr)
DOI: 10.1002/chem.201003596
Adsorbate Methane: InChIKey VNWKTOKETHGBQD-UHFFFAOYSA-N
Temperature: 303 K
Tabular data in the source: 0
pressure (bar)	uptake (cm3(STP)/cm3)
0.472482	5.55556
1.88844	20.6349
3.06483	29.3651
4.00534	35.7143
5.41314	42.0635
5.88637	48.4127
7.99807	57.9365
10.1083	65.873
12.2185	73.8095
14.0929	79.3651
16.2009	84.9206
21.8217	99.2063
26.5013	106.349
30.2455	112.698
34.9251	119.841
40.0705	125.397
44.9807	129.365
49.8917	134.127
55.0349	137.302
60.4117	140.476
65.0875	143.651
70.2299	146.032
75.1394	149.206
80.2811	150.794
84.9555	152.381
90.3316	154.762
