Adsorption isotherm of Methane on UiO-66(Zr)
DOI: 10.1002/chem.201003596
Adsorbate Methane: InChIKey VNWKTOKETHGBQD-UHFFFAOYSA-N
Temperature: 303 K
Tabular data in the source: 0
pressure (bar)	uptake (cm3(STP)/cm3)
0.958315	25.3968
2.61237	45.2381
4.96662	64.2857
7.54858	76.9841
9.89393	86.5079
15.0504	103.968
19.9681	115.873
24.8835	125.397
30.0312	133.333
35.178	140.476
40.0912	147.619
49.914	157.937
59.7352	166.667
70.2581	176.19
80.3108	182.54
90.1298	188.889
