Adsorption isotherm of Methane on UiO-66(Zr)
DOI: 10.1002/chem.201003596
Adsorbate Methane: InChIKey VNWKTOKETHGBQD-UHFFFAOYSA-N
Temperature: 303 K
Tabular data in the source: 0
pressure (bar)	uptake (cm3(STP)/cm3)
2.60495	37.3016
5.1884	51.5873
7.76962	63.4921
9.87984	71.4286
15.4999	84.9206
19.9488	95.2381
25.0957	102.381
30.2425	109.524
34.9229	117.46
40.3011	122.222
45.2136	128.571
50.3568	131.746
80.5177	153.968
90.3353	158.73
