Adsorption isotherm of Carbon Dioxide on UiO-66(Zr)
DOI: 10.1002/chem.201003596
Adsorbate Carbon Dioxide: InChIKey CURLTUGMZLYLDI-UHFFFAOYSA-N
Temperature: 303 K
Tabular data in the source: 0
pressure (bar)	uptake (cm3(STP)/cm3)
0.698613	62.8901
1.03458	74.0328
1.19837	73.2348
1.37315	89.1564
2.20259	101.09
3.19949	117.798
3.86304	127.345
5.18544	139.272
7.65963	153.575
10.1307	163.101
12.5996	169.443
15.0686	175.784
17.536	179.737
20.0028	182.894
25.1004	188.409
30.1974	193.128
34.9642	195.462
40.0596	197.793
44.9912	200.921
50.0861	202.456
55.1815	204.786
59.9473	205.528
