Adsorption isotherm of Nitrogen on pitch-based activated carbon beads
DOI: 10.1021/acs.jced.5b00321
Article source: Table S3
Adsorbate Nitrogen: InChIKey IJGRMHOSHXDMSA-UHFFFAOYSA-N
Kind: experiment
Temperature: 303 K
Tabular data in the source: 0
pressure (bar)	uptake (mmol/g)
0.12	0.03849
0.2	0.06357
0.3	0.09439
0.4	0.12411
0.5	0.15415
0.59	0.18307
0.7	0.21225
0.8	0.2404
1	0.2961
2.07	0.57018
4.06	0.9988
7.07	1.47376
10.06	1.82184
15.07	2.23841
20.07	2.63199
25.05	2.87261
30.07	3.11059
35.06	3.31748
40.06	3.51227
