Adsorption isotherm of Nitrogen, Methane on pitch-based activated carbon beads
DOI: 10.1021/acs.jced.5b00321
Article source: Table S7
Adsorbate Nitrogen: InChIKey IJGRMHOSHXDMSA-UHFFFAOYSA-N
Adsorbate Methane: InChIKey VNWKTOKETHGBQD-UHFFFAOYSA-N
Kind: experiment
Temperature: 303 K
Tabular data in the source: 0
pressure (bar)	Nitrogen fraction	Nitrogen uptake (mmol/g)	Methane fraction	Methane uptake (mmol/g)	total uptake (mmol/g)
1	0	0.296	0	0	
1	0.9	0.291	0.1	0.149	
1	0.8	0.234	0.2	0.293	
1	0.7	0.199	0.3	0.439	
1	0.6	0.16	0.4	0.54	
1	0.5	0.136	0.5	0.624	
1	0.3	0.073	0.7	0.808	
1	0	0	1	1.051	
