Adsorption isotherm of Carbon Dioxide, Methane on pitch-based activated carbon beads
DOI: 10.1021/acs.jced.5b00321
Article source: Table S6
Adsorbate Carbon Dioxide: InChIKey CURLTUGMZLYLDI-UHFFFAOYSA-N
Adsorbate Methane: InChIKey VNWKTOKETHGBQD-UHFFFAOYSA-N
Kind: experiment
Temperature: 303 K
Tabular data in the source: 0
pressure (bar)	Carbon Dioxide fraction	Carbon Dioxide uptake (mmol/g)	Methane fraction	Methane uptake (mmol/g)	total uptake (mmol/g)
1	1	2.322	0	0	
1	0.9	2.175	0.1	0.073	
1	0.8	1.882	0.2	0.14	
1	0.7	1.792	0.3	0.24	
1	0.6	1.555	0.4	0.295	
1	0.5	1.376	0.5	0.383	
1	0.3	0.877	0.7	0.693	
1	0	0	1	1.051	
