Adsorption isotherm of Carbon Dioxide on pitch-based activated carbon beads
DOI: 10.1021/acs.jced.5b00321
Article source: Table S1
Adsorbate Carbon Dioxide: InChIKey CURLTUGMZLYLDI-UHFFFAOYSA-N
Kind: experiment
Temperature: 303 K
Tabular data in the source: 0
pressure (bar)	uptake (mmol/g)
0.12	0.63092
0.2	0.85593
0.3	1.10714
0.39	1.31338
0.5	1.52971
0.59	1.69964
0.7	1.8841
0.79	2.03119
0.99	2.32249
2.05	3.42433
4.03	4.78442
7.03	5.99284
10.02	6.72898
15.01	7.49434
19.99	7.95028
24.83	8.25109
30.06	8.46732
35.06	8.46732
40.07	8.61655
