Adsorption isotherm of Methane on pitch-based activated carbon beads
DOI: 10.1021/acs.jced.5b00321
Article source: Table S2
Adsorbate Methane: InChIKey VNWKTOKETHGBQD-UHFFFAOYSA-N
Kind: experiment
Temperature: 303 K
Tabular data in the source: 0
pressure (bar)	uptake (mmol/g)
0.1	0.188
0.19	0.31796
0.3	0.44952
0.39	0.54507
0.5	0.64818
0.59	0.73182
0.7	0.82368
0.79	0.89938
0.9	0.98264
0.99	1.05106
1.49	1.3717
2.07	1.65045
3.08	2.0917
4.06	2.43824
5.05	2.72636
7.06	3.17462
10.06	3.68195
15.07	4.25588
20.06	4.63704
25.07	4.90397
30.07	5.09501
35.06	5.23317
40.05	5.32832
