Adsorption isotherm of Hydrogen on MOF-602
DOI: 10.1021/Ja803783c
Adsorbate Hydrogen: InChIKey UFHFLCQGNIYNRP-UHFFFAOYSA-N
Temperature: 77 K
Tabular data in the source: 0
pressure (bar)	uptake (cm3(STP)/g)
0.0648306	26.2621
0.130045	38.8033
0.188272	47.6739
0.29308	60.2151
0.402547	69.3915
0.521329	77.3445
0.679707	86.8268
0.840413	93.8621
0.99879	99.9798
1.08031	103.344
