Adsorption isotherm of Carbon Dioxide on MOF-602
DOI: 10.1021/Ja803783c
Adsorbate Carbon Dioxide: InChIKey CURLTUGMZLYLDI-UHFFFAOYSA-N
Temperature: 273 K
Tabular data in the source: 0
pressure (bar)	uptake (cm3(STP)/g)
0.0392108	1.42327
0.130045	4.3073
0.174297	5.35604
0.276776	8.24007
0.383914	11.2552
0.491051	13.746
0.640112	17.5476
0.705326	18.9897
0.842742	22.6602
1.01276	26.8552
