Adsorption isotherm of Hydrogen on MOP-23
DOI: 10.1021/Ja803783c
Adsorbate Hydrogen: InChIKey UFHFLCQGNIYNRP-UHFFFAOYSA-N
Temperature: 77 K
Tabular data in the source: 0
pressure (bar)	uptake (cm3(STP)/g)
0.01592	19.5327
0.0415398	30.5445
0.0648306	40.3327
0.0997667	49.2033
0.178955	64.4974
0.290751	78.8739
0.465432	92.6386
0.737933	106.403
0.949879	114.356
1.08497	117.721
