Adsorption isotherm of Nitrogen on MOF-602
DOI: 10.1021/Ja803783c
Adsorbate Nitrogen: InChIKey IJGRMHOSHXDMSA-UHFFFAOYSA-N
Temperature: 77 K
Tabular data in the source: 0
pressure (bar)	uptake (cm3(STP)/g)
0.00400996	96.8834
0.0127495	168.547
0.0477074	241.959
0.0542621	292.648
0.0870352	307.505
0.205018	326.732
0.314262	332.85
0.51964	339.841
0.912918	347.707
0.995943	364.312
