Adsorption isotherm of Nitrogen on MOF-603
DOI: 10.1021/Ja803783c
Adsorbate Nitrogen: InChIKey IJGRMHOSHXDMSA-UHFFFAOYSA-N
Temperature: 77 K
Tabular data in the source: 0
pressure (bar)	uptake (cm3(STP)/g)
0.00400996	19.1019
0.0105646	70.6649
0.0149343	86.396
0.102329	99.5053
0.17443	111.741
0.270565	118.732
0.419136	123.102
0.720649	135.337
0.969724	139.707
0.987203	144.077
