Adsorption isotherm of Nitrogen on MOP-23
DOI: 10.1021/Ja803783c
Adsorbate Nitrogen: InChIKey IJGRMHOSHXDMSA-UHFFFAOYSA-N
Temperature: 77 K
Tabular data in the source: 0
pressure (bar)	uptake (cm3(STP)/g)
0.0236738	189.522
0.0870352	204.379
0.161321	209.623
0.318632	218.362
0.421321	220.11
0.521825	223.606
0.722834	227.976
0.825523	229.724
0.967539	235.841
0.987203	251.572
