Adsorption isotherm of Hydrogen on MOF-601
DOI: 10.1021/Ja803783c
Adsorbate Hydrogen: InChIKey UFHFLCQGNIYNRP-UHFFFAOYSA-N
Temperature: 77 K
Tabular data in the source: 0
pressure (bar)	uptake (cm3(STP)/g)
-0.000384	1.17978
0.01592	13.1092
0.0368817	20.4504
0.0927795	34.521
0.157994	44.0033
0.272118	55.6268
0.481735	70.3092
0.698339	80.7092
0.919601	90.1915
1.06633	95.3915
