Adsorption isotherm of Nitrogen on MOF-601
DOI: 10.1021/Ja803783c
Adsorbate Nitrogen: InChIKey IJGRMHOSHXDMSA-UHFFFAOYSA-N
Temperature: 77 K
Tabular data in the source: 0
pressure (bar)	uptake (cm3(STP)/g)
0.00619484	22.5977
0.00837971	124.85
0.0105646	186.026
0.0345982	225.354
0.0477074	261.186
0.0695562	280.413
0.104514	288.278
0.196279	297.018
0.95006	311.875
0.991573	322.362
