Adsorption isotherm of Carbon Dioxide on MOP-23
DOI: 10.1021/Ja803783c
Adsorbate Carbon Dioxide: InChIKey CURLTUGMZLYLDI-UHFFFAOYSA-N
Temperature: 273 K
Tabular data in the source: 0
pressure (bar)	uptake (cm3(STP)/g)
0.0229072	2.34091
0.0718178	7.06024
0.130045	11.3863
0.21855	17.5476
0.379256	26.4619
0.486393	31.0502
0.591202	35.6384
0.740263	41.5376
0.8474	44.946
1.01975	50.1897
