Adsorption isotherm of Carbon Dioxide on MOF-603
DOI: 10.1021/Ja803783c
Adsorbate Carbon Dioxide: InChIKey CURLTUGMZLYLDI-UHFFFAOYSA-N
Temperature: 273 K
Tabular data in the source: 0
pressure (bar)	uptake (cm3(STP)/g)
0.0205782	0.898898
0.0881213	3.91402
0.134703	6.1426
0.225537	9.02663
0.330345	12.0418
0.493381	15.8434
0.591202	18.2031
0.700668	20.4317
0.849729	23.4468
1.01044	25.9376
