Adsorption isotherm of Carbon Dioxide on MOF-601
DOI: 10.1021/Ja803783c
Adsorbate Carbon Dioxide: InChIKey CURLTUGMZLYLDI-UHFFFAOYSA-N
Temperature: 273 K
Tabular data in the source: 0
pressure (bar)	uptake (cm3(STP)/g)
0.0066037	0.505621
0.00893277	3.78293
0.0252363	7.58461
0.0531852	11.2552
0.0927795	14.1392
0.157994	16.8922
0.362952	23.5779
0.563253	29.0838
0.77054	34.1964
1.01509	40.3577
