Adsorption isotherm of Hydrogen on MOF-603
DOI: 10.1021/Ja803783c
Adsorbate Hydrogen: InChIKey UFHFLCQGNIYNRP-UHFFFAOYSA-N
Temperature: 77 K
Tabular data in the source: 0
pressure (bar)	uptake (cm3(STP)/g)
0.0601724	16.7798
0.185943	29.0151
0.302396	34.8268
0.404876	38.8033
0.57024	44.3092
0.677377	46.7563
0.8474	50.4268
0.952208	51.9563
0.99879	52.8739
1.07798	53.7915
