Adsorption isotherm of Carbon Dioxide on C52H18Tb6N26O48F6 (site 3)
DOI: 10.1021/Ja401429x
Adsorbate Carbon Dioxide: InChIKey CURLTUGMZLYLDI-UHFFFAOYSA-N
Temperature: 273 K
Tabular data in the source: 0
pressure (bar)	uptake (mmol/g)
0.0245828	0.308683
0.0398814	0.377269
0.0530779	0.466966
0.0663327	0.578298
0.0818065	0.711792
0.0928425	0.800964
0.101776	0.911245
0.11509	1.04421
0.222998	1.82722
0.319635	2.43451
0.416215	3.02017
0.5191	3.54249
0.624089	4.04371
0.726624	4.43622
0.826999	4.82821
0.931578	5.17797
0.990379	5.36525
1.02962	5.50452
