Adsorption isotherm of Carbon Dioxide on C52H18Tb6N26O48F6 (site 2)
DOI: 10.1021/Ja401429x
Adsorbate Carbon Dioxide: InChIKey CURLTUGMZLYLDI-UHFFFAOYSA-N
Temperature: 298 K
Tabular data in the source: 0
pressure (bar)	uptake (mmol/g)
0.000140736	5.81603e-05
0.000567985	0.00354051
0.000901411	0.00698408
0.00114269	0.0114915
0.00214129	0.0207196
0.00323371	0.0299865
0.00427753	0.0381314
0.00541854	0.0485202
0.00627136	0.0543823
0.00731518	0.0625272
0.00840594	0.0706914
0.00949499	0.0777531
0.0105857	0.0859173
0.0202331	0.140593
