Adsorption isotherm of Carbon Dioxide on C52H18Tb6N26O48F6 (site 3)
DOI: 10.1021/Ja401429x
Adsorbate Carbon Dioxide: InChIKey CURLTUGMZLYLDI-UHFFFAOYSA-N
Temperature: 298 K
Tabular data in the source: 0
pressure (bar)	uptake (mmol/g)
0.00875872	0.0453739
0.0217217	0.0485273
0.0435016	0.11869
0.054596	0.229497
0.0653401	0.210489
0.0827992	0.279601
0.0959956	0.369298
0.108959	0.372452
0.119936	0.439987
0.220137	0.767064
0.316131	1.13636
0.422755	1.44338
0.525057	1.74935
0.627416	2.07695
0.725339	2.36023
0.827641	2.6662
0.929709	2.88562
0.98197	3.04969
1.02541	3.14674
