Adsorption isotherm of Carbon Dioxide on C52H18Tb6N26O48F6 (site 1)
DOI: 10.1021/Ja401429x
Adsorbate Carbon Dioxide: InChIKey CURLTUGMZLYLDI-UHFFFAOYSA-N
Temperature: 273 K
Tabular data in the source: 0
pressure (bar)	uptake (mmol/g)
1.12648e-05	0.0170746
3.88987e-05	0.0256272
4.52351e-05	0.0352317
7.4981e-05	0.0469858
0.000106839	0.0619415
0.000115288	0.0747474
0.000169851	0.0907856
0.00018886	0.119599
0.000334951	0.141034
0.000388107	0.154938
0.000417148	0.165625
0.00044619	0.176312
0.000541237	0.187046
0.000613578	0.196696
0.000727809	0.203176
0.000821447	0.211775
0.0010258	0.221518
0.00116273	0.229081
0.0022123	0.253282
0.0032087	0.26358
0.00437688	0.267597
0.00534707	0.271477
0.00640525	0.275417
0.00752662	0.275136
0.00836409	0.277855
0.00935415	0.278548
0.0104542	0.279319
