Adsorption isotherm of Carbon Dioxide on C52H18Tb6N26O48F6 (site 1)
DOI: 10.1021/Ja401429x
Adsorbate Carbon Dioxide: InChIKey CURLTUGMZLYLDI-UHFFFAOYSA-N
Temperature: 258 K
Tabular data in the source: 0
pressure (bar)	uptake (mmol/g)
1.05607e-06	0.0682674
3.09781e-05	0.046955
4.92833e-05	0.0747012
0.00011652	0.109948
0.000126377	0.124888
0.000130073	0.0971577
0.000154714	0.134508
0.00016598	0.151583
0.000173019	0.162254
0.000202766	0.174009
0.000231808	0.184696
0.000239552	0.196434
0.000266482	0.20392
0.00032879	0.231697
0.000388283	0.255205
0.000418732	0.268026
0.000469776	0.278729
0.000518003	0.285163
0.000632939	0.29271
0.000680461	0.298076
0.000772692	0.304541
0.000863514	0.308871
0.000998339	0.313232
0.00117717	0.317624
0.0023517	0.331246
0.00329988	0.33511
0.00440065	0.336947
0.00534741	0.338677
0.00642478	0.338364
0.00750426	0.341253
0.00856104	0.34306
0.00939639	0.342578
0.0104525	0.343317
