Adsorption isotherm of Carbon Dioxide on C52H18Y6N26O78F6
DOI: 10.1021/Ja401429x
Adsorbate Carbon Dioxide: InChIKey CURLTUGMZLYLDI-UHFFFAOYSA-N
Temperature: 298 K
Tabular data in the source: 0
pressure (bar)	uptake (mmol/g)
0.00225136	0.000333289
0.00258315	0.0924877
0.00277273	0.145147
0.00535588	0.237635
0.00568767	0.329789
0.00827081	0.422277
0.00869738	0.540761
0.0112331	0.620084
0.0184611	0.752733
0.0277037	0.819891
0.0483451	0.92821
0.0622325	1.03553
0.0715224	1.11585
0.0921164	1.21101
0.0990128	1.2515
0.112758	1.31932
0.215538	1.74243
0.318178	2.12605
0.420673	2.47017
0.520966	2.82712
0.623273	3.11858
0.727973	3.44987
0.834735	3.72884
0.932539	4.01963
0.984795	4.15895
1.028	4.28376
