Adsorption isotherm of Carbon Dioxide on C52H18Tb6N26O48F6 (site 2)
DOI: 10.1021/Ja401429x
Adsorbate Carbon Dioxide: InChIKey CURLTUGMZLYLDI-UHFFFAOYSA-N
Temperature: 258 K
Tabular data in the source: 0
pressure (bar)	uptake (mmol/g)
-7.81405e-05	0.010987
0.000124561	0.02209
0.00023829	0.0364621
0.000347377	0.0475265
0.000454917	0.0574883
0.000562456	0.0674501
0.000668449	0.0763093
0.000726087	0.0840466
0.000883529	0.0962329
0.00108313	0.105131
0.00128584	0.116234
0.00134348	0.123971
0.00250978	0.188365
0.00349698	0.225137
0.00460603	0.248735
0.00556384	0.264558
0.00666205	0.280439
0.00779935	0.290826
0.00889138	0.302297
0.00978845	0.308177
0.010684	0.312955
0.0204117	0.344523
