Adsorption isotherm of Carbon Dioxide on C52H18Tb6N26O48F6 (site 1)
DOI: 10.1021/Ja401429x
Adsorbate Carbon Dioxide: InChIKey CURLTUGMZLYLDI-UHFFFAOYSA-N
Temperature: 298 K
Tabular data in the source: 0
pressure (bar)	uptake (mmol/g)
4.75232e-05	0.0053666
9.64545e-05	0.0128675
0.000189388	0.0203992
0.000284435	0.0311325
0.000381594	0.0450671
0.000519939	0.054764
0.000658988	0.065528
0.000798742	0.0773592
0.000934975	0.0838545
0.00111803	0.0946494
0.00218378	0.143395
0.00323756	0.174
0.00428149	0.189664
0.00539001	0.20324
0.0062984	0.213476
0.007292	0.219505
0.0083743	0.226662
0.00943318	0.23167
0.0105134	0.235627
