Adsorption isotherm of Carbon Dioxide on C52H18Tb6N26O48F6 (site 3)
DOI: 10.1021/Ja401429x
Adsorbate Carbon Dioxide: InChIKey CURLTUGMZLYLDI-UHFFFAOYSA-N
Temperature: 258 K
Tabular data in the source: 0
pressure (bar)	uptake (mmol/g)
0.0182181	0.350378
0.0272688	0.503931
0.03848	0.658009
0.0584499	0.857462
0.0762009	1.03475
0.0853683	1.23158
0.103178	1.4305
0.116958	1.73656
0.221654	2.9296
0.329912	3.84242
0.431279	4.60221
0.523421	5.14355
0.626248	5.64424
0.729017	6.12329
0.831612	6.53744
0.938351	6.88773
0.994874	7.03121
1.03843	7.17153
