Adsorption isotherm of Carbon Dioxide on C52H18Tb6N26O48F6 (site 2)
DOI: 10.1021/Ja401429x
Adsorbate Carbon Dioxide: InChIKey CURLTUGMZLYLDI-UHFFFAOYSA-N
Temperature: 273 K
Tabular data in the source: 0
pressure (bar)	uptake (mmol/g)
0.000157536	0.0110844
0.000308353	0.0177583
0.000552995	0.024471
0.000750724	0.0311642
0.000950132	0.0389601
0.00105908	0.0489225
0.00120821	0.0544938
0.00226057	0.0990058
0.00329445	0.131389
0.00455952	0.161664
0.00557827	0.184123
0.00668414	0.202211
0.00773972	0.218075
0.00855571	0.230533
0.00960458	0.241986
0.0106501	0.251233
0.0202589	0.311402
