Adsorption isotherm of Carbon Dioxide on C52H18Tb6N26O48F6
DOI: 10.1021/Ja401429x
Adsorbate Carbon Dioxide: InChIKey CURLTUGMZLYLDI-UHFFFAOYSA-N
Temperature: 298 K
Tabular data in the source: 0
pressure (bar)	uptake (mmol/g)
0.00467222	0.0400024
0.00982409	0.19818
0.0193817	0.330707
0.0244803	0.475754
0.0338247	0.555759
0.0431158	0.622633
0.0569193	0.690118
0.0684133	0.744168
0.0799073	0.798217
0.0891984	0.865091
0.100639	0.90601
0.116752	0.98693
0.21064	1.34085
0.320322	1.6969
0.418776	2.06455
0.521476	2.36717
0.626271	2.6307
0.728972	2.93331
0.831565	3.20966
0.931795	3.45945
0.990936	3.58556
1.02972	3.6958
