Adsorption isotherm of Nitrogen on SnCoS4
DOI: 10.1016/j.apcatb.2017.07.003
Article source: Figure 6
Adsorbate Nitrogen: InChIKey IJGRMHOSHXDMSA-UHFFFAOYSA-N
Kind: experiment
Temperature: 77 K
Tabular data in the source: 0
pressure (bar)	uptake (cm3(STP)/g)
0.050175	5.046
0.054613	4.994
0.085213	5.089
0.123726	5.097
0.15473	5.44
0.194186	5.449
0.226599	5.624
0.262305	6.304
0.29942	6.312
0.335582	6.488
0.370346	7.336
0.403701	7.343
0.440806	7.183
0.47557	7.863
0.478863	7.864
0.508925	7.702
0.511742	8.039
0.545097	7.541
0.548857	8.215
0.579861	8.558
0.584087	9.064
0.616024	7.724
0.61885	8.566
0.651264	8.741
0.65408	8.91
0.688368	8.749
0.690719	9.086
0.72219	9.261
0.725959	10.44
0.756011	9.1
0.768707	10.954
0.78421	11.462
0.790775	9.78
0.826948	9.788
0.835884	13.66
0.862654	10.973
0.864072	15.854
0.893659	11.821
0.900255	19.058
0.935009	16.205
0.93973	25.461
0.965568	23.111
0.976865	32.368
1.00271	36.581
