Adsorption isotherm of Nitrogen on mpg-C3N4
DOI: 10.1016/j.apcatb.2017.07.003
Article source: Figure 6
Adsorbate Nitrogen: InChIKey IJGRMHOSHXDMSA-UHFFFAOYSA-N
Kind: experiment
Temperature: 77 K
Tabular data in the source: 0
pressure (bar)	uptake (cm3(STP)/g)
0.051188	45.806
0.08731	50.796
0.097665	51.435
0.123715	54.514
0.162198	58.233
0.194165	61.95
0.226133	65.349
0.265801	69.385
0.29866	73.102
0.317009	74.484
0.336251	75.76
0.355198	78.415
0.368522	81.068
0.387763	83.298
0.408484	86.058
0.438992	95.606
0.440755	89.987
0.473361	106.638
0.475691	95.083
0.511803	99.225
0.513637	116.399
0.546151	105.487
0.549779	130.4
0.582567	111.643
0.585941	150.549
0.619296	121.615
0.620411	197.412
0.654526	223.285
0.654577	145.475
0.687568	190.853
0.689462	228.381
0.72527	231.462
0.725533	220.438
0.760794	233.802
0.761371	229.88
0.795122	235.823
0.795406	232.537
0.814363	235.827
0.830626	234.453
0.848094	237.107
0.86615	237.004
0.886566	237.963
0.902555	238.39
0.923863	239.243
0.9351	239.139
0.968547	240.1
1.00643	240.956
