Adsorption isotherm of Nitrogen on SnCoS4/mpg-C3N4
DOI: 10.1016/j.apcatb.2017.07.003
Article source: Figure 6
Adsorbate Nitrogen: InChIKey IJGRMHOSHXDMSA-UHFFFAOYSA-N
Kind: experiment
Temperature: 77 K
Tabular data in the source: 0
pressure (bar)	uptake (cm3(STP)/g)
0.051837	17.661
0.086469	19.63
0.099641	20.693
0.120655	21.863
0.155571	22.665
0.192423	24.528
0.225271	26.231
0.262568	27.193
0.297049	28.843
0.314507	29.96
0.335369	30.283
0.349726	30.975
0.368664	31.88
0.38983	33.156
0.406994	34.803
0.439418	39.58
0.439701	37.831
0.473016	45.63
0.478032	39.641
0.510739	42.934
0.512431	61.91
0.547205	64.78
0.547448	46.228
0.580307	49.203
0.58509	66.484
0.618384	68.346
0.619519	51.067
0.652966	53.777
0.654942	69.944
0.688632	55.799
0.689564	71.7
0.721926	56.601
0.726709	73.616
0.758332	59.205
0.760004	75.266
0.794585	61.068
0.795527	77.023
0.812398	77.98
0.830251	63.885
0.849685	80.479
0.863252	66.595
0.885056	83.667
0.901005	71.744
0.925616	89.665
0.934755	77.9
0.968871	104.356
0.969712	90.469
1.00781	132.823
