Adsorption isotherm of Methane on [Zn4O(L1)3]n
DOI: 10.1002/chem.201002341
Adsorbate Methane: InChIKey VNWKTOKETHGBQD-UHFFFAOYSA-N
Temperature: 195 K
Tabular data in the source: 0
pressure (bar)	uptake (cm3(STP)/g)
0.0108404	1.09481
0.0189878	2.54999
0.032531	3.64676
0.056895	5.11369
0.0839715	6.94491
0.108326	8.04951
0.13269	9.51644
0.159756	10.9853
0.181418	12.4503
0.211167	13.1965
0.235522	14.3011
0.259866	15.0434
0.28422	16.148
0.311267	16.8922
0.332899	17.2702
0.359946	18.0145
0.384291	18.7567
0.411318	18.7763
0.435672	19.8809
0.46271	20.2628
0.484342	20.6408
0.511379	21.0227
0.535714	21.4027
0.560038	21.4203
0.587086	22.1646
0.61141	22.1822
0.635745	22.5621
0.662782	22.944
0.687117	23.324
0.714144	23.3436
0.735776	23.7216
0.760101	23.7392
0.787129	23.7588
0.811453	23.7764
0.841194	24.1603
0.862816	24.176
0.88715	24.5559
0.911475	24.5735
0.93581	24.9535
0.96554	24.975
0.984459	24.9887
1.00338	25.0024
