Adsorption isotherm of Nitrogen on [Zn2(L1)2(dabco)]n
DOI: 10.1002/chem.201002341
Adsorbate Nitrogen: InChIKey IJGRMHOSHXDMSA-UHFFFAOYSA-N
Temperature: 77 K
Tabular data in the source: 0
pressure (bar)	uptake (cm3(STP)/g)
0.0354124	0.547445
0.0599356	0.547445
0.138945	1.09489
0.286084	1.09489
0.386901	1.09489
0.46592	1.09489
0.53949	1.09489
0.640307	1.09489
0.66483	1.09489
0.7384	1.09489
0.811969	1.09489
0.888263	1.09489
0.934585	1.09489
0.959068	3.28467
0.972653	5.47445
0.991597	12.5912
