Adsorption isotherm of Carbon Dioxide on [Zn2(L4)2(dabco)]n
DOI: 10.1002/chem.201002341
Adsorbate Carbon Dioxide: InChIKey CURLTUGMZLYLDI-UHFFFAOYSA-N
Temperature: 195 K
Tabular data in the source: 0
pressure (bar)	uptake (cm3(STP)/g)
0.000434745	40.3226
0.00596083	52.8674
0.00616372	71.6846
0.00893642	78.853
0.0144722	92.2939
0.0200272	107.527
0.0555797	155.018
0.0771914	159.498
0.104194	163.978
0.131177	166.667
0.15815	168.459
0.185134	171.147
0.212088	171.147
0.233671	172.939
0.260644	174.731
0.284912	175.627
0.314572	176.523
0.336135	176.523
0.365794	177.419
0.387358	177.419
0.411607	176.523
0.435885	178.315
0.465534	178.315
0.492479	177.419
0.511347	177.419
0.541006	178.315
0.562579	179.211
0.586838	179.211
0.613811	181.004
0.63807	181.004
0.662348	182.796
0.689302	182.796
0.710875	183.692
0.740525	183.692
0.764793	184.588
0.789062	185.484
0.813321	185.484
0.840284	186.38
0.861857	187.276
0.886116	187.276
0.910385	188.172
0.940034	188.172
0.964303	189.068
0.985866	189.068
0.999353	189.964
