Adsorption isotherm of Carbon Dioxide on [Zn2(L1)2(dabco)]n
DOI: 10.1002/chem.201002341
Adsorbate Carbon Dioxide: InChIKey CURLTUGMZLYLDI-UHFFFAOYSA-N
Temperature: 195 K
Tabular data in the source: 0
pressure (bar)	uptake (cm3(STP)/g)
0.00259552	7.11679
0.00798544	10.4015
0.0133853	13.1387
0.0269795	14.781
0.0351538	14.781
0.0596472	16.4234
0.0841604	16.9708
0.111388	18.0657
0.135902	18.6131
0.160415	19.1606
0.182193	20.2555
0.206707	20.8029
0.23121	21.8978
0.250244	24.0876
0.274459	41.0584
0.297898	100.73
0.324798	119.891
0.346536	123.175
0.373735	125.912
0.403677	127.555
0.428171	129.197
0.458124	130.292
0.479912	130.839
0.50714	131.934
0.531653	132.482
0.558891	133.029
0.58068	133.577
0.610643	134.124
0.635156	134.672
0.656944	135.219
0.684192	135.219
0.708705	135.766
0.735943	136.314
0.757742	136.314
0.78498	136.861
0.809503	136.861
0.836741	137.409
0.858539	137.409
0.880328	137.956
0.910301	137.956
0.934824	137.956
0.962062	138.504
0.986585	138.504
0.997484	138.504
