Adsorption isotherm of Carbon Dioxide on [Zn4O(L2)3]n
DOI: 10.1002/chem.201002341
Adsorbate Carbon Dioxide: InChIKey CURLTUGMZLYLDI-UHFFFAOYSA-N
Temperature: 195 K
Tabular data in the source: 0
pressure (bar)	uptake (cm3(STP)/g)
0	1.51625
0.0027027	9.8556
0.0162162	20.9747
0.0324324	26.2816
0.0567568	30.8303
0.0864865	33.3574
0.110811	35.6318
0.135135	37.4007
0.162162	38.917
0.183784	40.1805
0.210811	41.1913
0.235135	42.2022
0.262162	43.213
0.286486	44.2238
0.310811	44.9819
0.335135	45.7401
0.362162	46.4982
0.386486	47.0036
0.410811	47.7617
0.437838	48.2671
0.462162	48.7726
0.486486	49.0253
0.508108	49.5307
0.535135	50.5415
0.562162	51.0469
0.586486	51.2996
0.613514	51.8051
0.637838	52.5632
0.659459	52.8159
0.686486	53.3213
0.713514	53.8267
0.735135	54.0794
0.764865	54.0794
0.786486	54.8375
0.810811	55.343
0.837838	55.5957
0.862162	56.1011
0.886486	56.3538
0.910811	56.6065
0.937838	57.1119
0.964865	57.6173
0.986486	57.87
1	58.6282
