Adsorption isotherm of Carbon Dioxide on [Zn2(L2)2(dabco)]n
DOI: 10.1002/chem.201002341
Adsorbate Carbon Dioxide: InChIKey CURLTUGMZLYLDI-UHFFFAOYSA-N
Temperature: 195 K
Tabular data in the source: 0
pressure (bar)	uptake (cm3(STP)/g)
0.000285978	4.30112
0.000896066	13.4768
0.00334595	10.3231
0.00390837	18.7819
0.00672049	21.0762
0.00946589	22.3669
0.012278	24.6613
0.0230594	26.8133
0.0391028	28.106
0.0577962	29.2556
0.0764897	30.4052
0.111112	31.127
0.137756	31.8477
0.159052	32.1375
0.185686	32.7148
0.212301	33.0053
0.236256	33.2955
0.262871	33.5861
0.289496	34.02
0.310782	34.1664
0.337397	34.457
0.361343	34.6038
0.387958	34.8943
0.411904	35.0411
0.43851	35.1883
0.462456	35.3351
0.489061	35.4823
0.515667	35.6295
0.539622	35.9197
0.560909	36.0661
0.587514	36.2133
0.61411	36.2171
0.638056	36.3639
0.661993	36.3673
0.688598	36.5145
0.717863	36.6621
0.73915	36.8085
0.763086	36.8119
0.789691	36.9591
0.813637	37.1059
0.840252	37.3965
0.864189	37.3999
0.888135	37.5467
0.91474	37.6939
0.938686	37.8407
0.962623	37.8441
0.986578	38.1343
0.999876	38.1362
