Adsorption isotherm of Nitrogen on [Zn4O(L4)3]n
DOI: 10.1002/chem.201002341
Adsorbate Nitrogen: InChIKey IJGRMHOSHXDMSA-UHFFFAOYSA-N
Temperature: 77 K
Tabular data in the source: 0
pressure (bar)	uptake (cm3(STP)/g)
0	101.767
0.0026738	148.41
0.00534759	373.145
0.00802139	404.947
0.0160428	415.548
0.0240642	424.028
0.0347594	430.389
0.0534759	440.989
0.0802139	449.47
0.106952	455.83
0.131016	460.071
0.157754	464.311
0.181818	468.551
0.21123	474.912
0.23262	477.032
0.262032	481.272
0.286096	483.392
0.315508	485.512
0.336898	487.633
0.360963	491.873
0.390374	493.993
0.414439	493.993
0.438503	496.113
0.462567	498.233
0.489305	500.353
0.513369	502.473
0.540107	504.594
0.561497	504.594
0.588235	506.714
0.612299	508.834
0.636364	510.954
0.663102	513.074
0.687166	515.194
0.71123	515.194
0.740642	517.314
0.762032	519.435
0.786096	521.555
0.812834	523.675
0.836898	525.795
0.858289	525.795
0.887701	527.915
0.911765	530.035
0.935829	532.155
0.959893	534.276
0.986631	538.516
0.997326	553.357
