Adsorption isotherm of Carbon Dioxide on [Zn4O(L1)3]n
DOI: 10.1002/chem.201002341
Adsorbate Carbon Dioxide: InChIKey CURLTUGMZLYLDI-UHFFFAOYSA-N
Temperature: 195 K
Tabular data in the source: 0
pressure (bar)	uptake (cm3(STP)/g)
0.000215437	7.97117
0.000332948	12.3191
0.000430874	15.9423
0.0033001	22.1038
0.00353513	30.7997
0.00615954	27.903
0.0146008	40.228
0.0200846	43.1305
0.0310621	49.2979
0.0365655	52.925
0.0447619	56.1919
0.0556513	59.0983
0.0665309	61.6424
0.0773811	63.0996
0.0855383	64.9171
0.0963885	66.3742
0.104516	67.1047
0.126197	69.2943
0.153264	70.7632
0.177647	72.9548
0.204714	74.4237
0.231781	75.8926
0.256135	76.9972
0.283182	77.7414
0.307536	78.846
0.334584	79.5903
0.358938	80.6949
0.385975	81.0768
0.407636	82.5418
0.431971	82.9217
0.459018	83.666
0.48064	83.6816
0.51039	84.4278
0.534744	85.5324
0.561772	85.552
0.583404	85.93
0.613153	86.6762
0.634795	87.4165
0.65913	87.7965
0.686167	88.1784
0.710502	88.5583
0.734846	89.3006
0.761874	89.3202
0.786218	90.0625
0.810552	90.4424
0.83759	90.8243
0.861915	90.842
0.886259	91.5842
0.913287	91.6038
0.937621	91.9838
0.988974	92.021
1.00519	92.0327
