Adsorption isotherm of Nitrogen on [Zn4O(L2)3]n
DOI: 10.1002/chem.201002341
Adsorbate Nitrogen: InChIKey IJGRMHOSHXDMSA-UHFFFAOYSA-N
Temperature: 77 K
Tabular data in the source: 0
pressure (bar)	uptake (cm3(STP)/g)
0.0216216	0.252708
0.0378378	0.505415
0.0648649	0.505415
0.0864865	0.505415
0.116216	0.505415
0.137838	0.505415
0.162162	0.758123
0.189189	0.252708
0.213514	0.505415
0.237838	0.505415
0.264865	0.252708
0.289189	0.505415
0.313514	0.252708
0.340541	0.505415
0.362162	0.505415
0.389189	0.252708
0.416216	0.252708
0.437838	0.252708
0.464865	0.252708
0.489189	0.252708
0.510811	0.252708
0.537838	0.252708
0.562162	0.505415
0.589189	0.252708
0.613514	0.505415
0.637838	0.505415
0.664865	0.252708
0.686486	0.505415
0.713514	0.252708
0.740541	0.252708
0.764865	0.252708
0.789189	0.252708
0.816216	0.252708
0.837838	0.252708
0.864865	0.252708
0.886486	0.252708
0.910811	0.505415
0.935135	0.758123
0.956757	2.27437
0.978378	5.55957
0.997297	11.8773
