Adsorption isotherm of Methane on [Zn2(L1)2(dabco)]n
DOI: 10.1002/chem.201002341
Adsorbate Methane: InChIKey VNWKTOKETHGBQD-UHFFFAOYSA-N
Temperature: 195 K
Tabular data in the source: 0
pressure (bar)	uptake (cm3(STP)/g)
0.0190736	5.68e-14
0.0626703	5.68e-14
0.111717	5.68e-14
0.163488	5.68e-14
0.212534	5.68e-14
0.264305	5.68e-14
0.313351	5.68e-14
0.362398	5.68e-14
0.414169	5.68e-14
0.46594	5.68e-14
0.512262	5.68e-14
0.566757	5.68e-14
0.613079	5.68e-14
0.662125	5.68e-14
0.713896	5.68e-14
0.762943	5.68e-14
0.787466	5.68e-14
0.839247	-0.547445
0.888283	5.68e-14
0.934605	5.68e-14
0.961863	-0.547445
0.986376	5.68e-14
