Adsorption isotherm of Carbon Dioxide on [Zn4O(L4)3]n
DOI: 10.1002/chem.201002341
Adsorbate Carbon Dioxide: InChIKey CURLTUGMZLYLDI-UHFFFAOYSA-N
Temperature: 195 K
Tabular data in the source: 0
pressure (bar)	uptake (cm3(STP)/g)
0.0534759	131.449
0.0721925	195.053
0.0989305	277.739
0.125668	309.541
0.147059	324.382
0.176471	332.862
0.205882	339.223
0.23262	341.343
0.259358	347.703
0.283422	349.823
0.307487	351.943
0.336898	354.064
0.358289	358.304
0.385027	358.304
0.411765	360.424
0.435829	362.544
0.457219	364.664
0.489305	364.664
0.510695	366.784
0.537433	366.784
0.561497	368.905
0.585561	368.905
0.612299	368.905
0.63369	371.025
0.663102	371.025
0.687166	373.145
0.71123	373.145
0.737968	373.145
0.762032	375.265
0.786096	373.145
0.812834	375.265
0.839572	377.385
0.858289	377.385
0.887701	377.385
0.911765	379.505
0.935829	381.625
0.962567	381.625
0.989305	381.625
1.00267	383.746
