Adsorption isotherm of Nitrogen on [Zn2(L4)2(dabco)]n
DOI: 10.1002/chem.201002341
Adsorbate Nitrogen: InChIKey IJGRMHOSHXDMSA-UHFFFAOYSA-N
Temperature: 77 K
Tabular data in the source: 0
pressure (bar)	uptake (cm3(STP)/g)
0.00533826	0.287504
0.0345939	0.291698
0.0611994	0.438882
0.0877859	0.299324
0.114382	0.303137
0.138318	0.306569
0.162264	0.453371
0.18886	0.457184
0.212797	0.460616
0.236723	0.320677
0.265979	0.324872
0.287256	0.327922
0.313842	0.188364
0.340438	0.192178
0.364375	0.195609
0.388311	0.199041
0.412248	0.202473
0.438844	0.206286
0.46278	0.209718
0.489376	0.213531
0.513312	0.216962
0.539899	0.0774048
0.563845	0.224207
0.590441	0.22802
0.614387	0.374822
0.635663	0.377873
0.664909	0.238697
0.688855	0.385499
0.715451	0.389312
0.736728	0.392362
0.765993	0.539927
0.78993	0.543359
0.816535	0.690543
0.840472	0.693974
0.864427	0.984147
0.888364	0.987579
0.917657	1.56526
0.944291	2.14255
0.979009	4.29807
0.992603	8.74446
