Adsorption isotherm of Nitrogen on [Zn2(L4)2(dabco)]n
DOI: 10.1002/chem.201002341
Adsorbate Nitrogen: InChIKey IJGRMHOSHXDMSA-UHFFFAOYSA-N
Temperature: 77 K
Tabular data in the source: 0
pressure (bar)	uptake (cm3(STP)/g)
0.00165203	153.226
0.0017583	163.082
0.00196118	181.9
0.00740032	186.38
0.0155156	189.068
0.0209354	191.756
0.0317267	192.652
0.0587292	197.133
0.0829976	198.029
0.107276	199.821
0.13424	200.717
0.158518	202.509
0.185481	203.405
0.212445	204.301
0.236704	204.301
0.263668	205.197
0.285241	206.093
0.312195	206.093
0.336463	206.989
0.360713	206.093
0.384981	206.989
0.411945	207.885
0.436213	208.781
0.463158	207.885
0.487426	208.781
0.511685	208.781
0.538639	208.781
0.589871	210.573
0.611435	210.573
0.638399	211.47
0.662648	210.573
0.686916	211.47
0.711175	211.47
0.735443	212.366
0.759702	212.366
0.789342	211.47
0.810925	213.262
0.837879	213.262
0.864843	214.158
0.889111	215.054
0.91338	215.95
0.937638	215.95
0.964602	216.846
0.986194	219.534
0.997063	227.599
