Adsorption isotherm of Nitrogen on [Zn4O(L1)3]n
DOI: 10.1002/chem.201002341
Adsorbate Nitrogen: InChIKey IJGRMHOSHXDMSA-UHFFFAOYSA-N
Temperature: 77 K
Tabular data in the source: 0
pressure (bar)	uptake (cm3(STP)/g)
0.0351358	0.0254607
0.0594704	0.405413
0.0864882	0.0626726
0.113526	0.444584
0.135148	0.460252
0.15676	0.113594
0.1865	0.497464
0.210825	0.51509
0.237852	0.534676
0.262177	0.552302
0.286492	0.207603
0.310817	0.22523
0.335142	0.242856
0.364872	0.2644
0.386494	0.280068
0.410819	0.297695
0.435144	0.315321
0.462171	0.334907
0.486496	0.352533
0.513524	0.372119
0.535146	0.387787
0.562183	0.769698
0.586498	0.424999
0.613535	0.80691
0.63785	0.46221
0.659482	0.840204
0.683797	0.495505
0.710825	0.51509
0.737852	0.534676
0.762177	0.552302
0.789205	0.571887
0.813529	0.589514
0.835142	0.242856
0.862179	0.624767
0.886504	0.642394
0.910829	0.660021
0.935153	0.677647
0.959468	0.332948
0.983842	2.1622
0.994722	4.70632
