Adsorption isotherm of Carbon Dioxide on MIL-53(Fe)
DOI: 10.1039/c4ce01393j
Article source: Figure 1a
Adsorbate Carbon Dioxide: InChIKey CURLTUGMZLYLDI-UHFFFAOYSA-N
Kind: experiment
Temperature: 195 K
Tabular data in the source: 0
pressure (bar)	uptake (mmol/g)
0.016706	0.74162
0.026253	0.898743
0.041766	1.16271
0.053699	1.27584
0.057279	1.4581
0.058473	1.65922
0.064439	1.8352
0.069212	2.01746
0.071599	2.22486
0.073986	2.42598
0.075179	2.63966
0.079952	2.8345
0.084725	3.00419
0.091885	3.13617
0.101432	3.26816
0.114558	3.35615
0.128878	3.40642
0.144391	3.4567
0.161098	3.49441
0.177804	3.51955
0.195704	3.54469
0.214797	3.56983
0.23031	3.5824
0.24821	3.60126
0.267303	3.6264
0.28401	3.63268
0.301909	3.65154
0.319809	3.66411
0.337709	3.67668
0.354415	3.68925
0.373508	3.70182
0.390215	3.72067
0.408115	3.72696
0.424821	3.74581
0.442721	3.75838
0.459427	3.76466
0.47852	3.78352
0.495227	3.79609
0.511933	3.79609
0.529833	3.80866
0.545346	3.81494
0.563246	3.82751
0.579952	3.8338
0.596659	3.84637
0.615752	3.85894
0.631265	3.87151
0.645585	3.87779
0.664678	3.89665
0.681384	3.90293
0.696897	3.90922
0.714797	3.92807
0.73031	3.95321
0.74463	3.96578
0.763723	3.97835
0.77685	3.99721
0.793556	4.00978
0.810263	4.02863
0.825776	4.04749
0.841289	4.06634
0.855609	4.0852
0.872315	4.11034
0.887828	4.12919
0.903341	4.16061
0.917661	4.17318
0.933174	4.17947
0.946301	4.19832
0.9642	4.21718
0.979714	4.22975
0.99284	4.2486
