Adsorption isotherm of Carbon Dioxide on MIL-53(Fe)
DOI: 10.1039/c4ce01393j
Article source: Figure 1a
Adsorbate Carbon Dioxide: InChIKey CURLTUGMZLYLDI-UHFFFAOYSA-N
Kind: experiment
Temperature: 303 K
Tabular data in the source: 0
pressure (bar)	uptake (mmol/g)
0	0
0.069212	0.031425
0.085919	0.282821
0.095465	0.534218
0.167064	0.829609
0.264916	0.980447
0.362768	1.07472
0.459427	1.13128
0.548926	1.18156
0.630072	1.2067
0.704057	1.23813
0.770883	1.25698
0.829356	1.26955
0.879475	1.28841
0.965394	1.31355
