Adsorption isotherm of Carbon Dioxide on MIL-53(Fe)
DOI: 10.1039/c4ce01393j
Article source: Figure 1a
Adsorbate Carbon Dioxide: InChIKey CURLTUGMZLYLDI-UHFFFAOYSA-N
Kind: experiment
Temperature: 230 K
Tabular data in the source: 0
pressure (bar)	uptake (mmol/g)
0.001193	0.201117
0.00358	0.414804
0.005967	0.634777
0.01074	0.810754
0.022673	0.923883
0.033413	1.04958
0.050119	1.09358
0.066826	1.13757
0.084725	1.16899
0.101432	1.20042
0.119332	1.23813
0.137232	1.26327
0.156325	1.27584
0.175418	1.29469
0.192124	1.30726
0.212411	1.3324
0.23031	1.34497
0.24821	1.37011
0.263723	1.42039
0.278043	1.48324
0.288783	1.5838
0.303103	1.64665
0.316229	1.72835
0.326969	1.80377
0.341289	1.88547
0.349642	2.01117
0.357995	2.15573
0.362768	2.30028
0.371122	2.43855
0.377088	2.57053
0.384248	2.7088
0.393795	2.82193
0.403341	2.92249
0.415274	3.01047
0.428401	3.07961
0.445107	3.13617
0.459427	3.16131
0.476134	3.20531
0.491647	3.23045
0.50716	3.2493
0.52864	3.26816
0.544153	3.28073
0.560859	3.2933
0.578759	3.29958
0.595465	3.31844
0.613365	3.32472
0.631265	3.32472
0.649165	3.33729
0.667064	3.34986
0.683771	3.35615
0.699284	3.35615
0.71957	3.36872
0.73747	3.36872
0.752983	3.375
0.770883	3.38128
0.789976	3.38128
0.806683	3.38757
0.824582	3.40014
0.842482	3.40642
0.860382	3.40014
0.878282	3.40642
0.893795	3.41271
0.911695	3.42528
0.928401	3.42528
0.946301	3.43156
0.9642	3.43785
0.979714	3.43156
0.990453	3.44413
0.997613	3.43785
