Adsorption isotherm of Carbon Dioxide on MIL-53(Fe)
DOI: 10.1039/c4ce01393j
Article source: Figure 2a
Adsorbate Carbon Dioxide: InChIKey CURLTUGMZLYLDI-UHFFFAOYSA-N
Kind: experiment
Temperature: 303 K
Tabular data in the source: 0
pressure (bar)	uptake (mmol/g)
0.570342	1.15302
0.855513	1.1637
1.04563	1.21708
1.23574	1.30249
1.42586	1.33452
2.09125	1.37722
2.28137	1.3879
2.6616	1.4306
3.42205	1.47331
3.61217	1.48399
4.37262	1.50534
4.84791	1.84698
5.03802	2.66904
5.22814	2.49822
5.32319	2.75445
5.98859	3.01068
6.27376	3.07473
6.55894	3.11744
7.69962	3.16014
9.5057	3.27758
10.1711	3.30961
11.7871	3.36299
12.6426	3.39502
12.8327	3.38434
15.3042	3.4911
15.6844	3.50178
16.635	3.55516
17.1103	3.52313
17.5856	3.56584
17.8707	3.55516
19.2966	3.60854
20.3422	3.64057
20.9125	3.65125
22.0532	3.66192
25.2852	3.76868
30.3232	3.8968
35.2662	4.01423
40.3042	4.1637
45.1521	4.44128
