Adsorption isotherm of Hydrogen on [Li0.5H0.5]+[In(C16H6O8)]-
DOI: 10.1021/Ie100214a
Adsorbate Hydrogen: InChIKey UFHFLCQGNIYNRP-UHFFFAOYSA-N
Temperature: 298 K
Tabular data in the source: 0
pressure (bar)	uptake (mmol/g)
3.25572	0.0374478
10.0725	0.0374478
20.2977	0.0374478
30.1297	0.0374478
40.3549	0.0811453
50.3179	0.124843
60.6742	0.124843
