Adsorption isotherm of Nitrogen on [Li0.5H0.5]+[In(C16H6O8)]-
DOI: 10.1021/Ie100214a
Adsorbate Nitrogen: InChIKey IJGRMHOSHXDMSA-UHFFFAOYSA-N
Temperature: 298 K
Tabular data in the source: 0
pressure (bar)	uptake (mmol/g)
0.240598	0.299633
2.86245	1.34837
9.81035	2.30972
19.9045	2.22232
29.9986	2.22232
40.0927	2.17862
50.0557	2.17862
59.8877	2.22232
