Adsorption isotherm of Carbon Dioxide on [Li0.5H0.5]+[In(C16H6O8)]-
DOI: 10.1021/Ie100214a
Adsorbate Carbon Dioxide: InChIKey CURLTUGMZLYLDI-UHFFFAOYSA-N
Temperature: 298 K
Tabular data in the source: 0
pressure (bar)	uptake (mmol/g)
0.502783	0.16854
1.15824	0.911397
3.38682	2.6593
9.81035	8.12148
19.9045	10.9618
30.2608	12.1416
39.9616	12.8845
50.0557	13.4089
59.6255	13.7148
