Adsorption isotherm of Carbon Dioxide on [Li0.5H0.5]+[In(C16H6O8)]-
DOI: 10.1021/Ie100214a
Adsorbate Carbon Dioxide: InChIKey CURLTUGMZLYLDI-UHFFFAOYSA-N
Temperature: 298 K
Tabular data in the source: 0
pressure (bar)	uptake (mmol/g)
0.37169	0.0374478
0.633875	2.17862
1.15824	5.19375
2.99354	10.6559
10.2036	15.2005
20.2977	16.6425
30.523	17.3853
40.3549	17.8223
50.3179	18.0845
60.1498	18.2156
