Adsorption isotherm of Carbon Dioxide on [Li0.5H0.5]+[In(C16H6O8)]-
DOI: 10.1021/Ie100214a
Adsorbate Carbon Dioxide: InChIKey CURLTUGMZLYLDI-UHFFFAOYSA-N
Temperature: 298 K
Tabular data in the source: 0
pressure (bar)	uptake (mmol/g)
0.240598	0.605515
0.37169	1.30467
0.633875	2.44081
1.02715	5.23745
2.99354	10.0442
9.94144	14.4576
20.2977	15.8996
29.9986	16.5551
39.9616	16.9484
49.9246	17.3417
59.6255	17.6038
