Adsorption isotherm of Carbon Dioxide on [Li0.5H0.5]+[In(C16H6O8)]-
DOI: 10.1021/Ie100214a
Adsorbate Carbon Dioxide: InChIKey CURLTUGMZLYLDI-UHFFFAOYSA-N
Temperature: 298 K
Tabular data in the source: 0
pressure (bar)	uptake (mmol/g)
0.37169	-0.0062497
1.15824	0.561818
3.25572	2.79039
9.94144	9.78199
20.2977	12.7971
29.8675	14.0206
40.486	14.6761
50.3179	15.3316
60.2809	15.6374
