Adsorption isotherm of Nitrogen on [Li0.5H0.5]+[In(C16H6O8)]-
DOI: 10.1021/Ie100214a
Adsorbate Nitrogen: InChIKey IJGRMHOSHXDMSA-UHFFFAOYSA-N
Temperature: 298 K
Tabular data in the source: 0
pressure (bar)	uptake (mmol/g)
0.764968	0.16854
2.99354	0.8677
10.0725	0.998792
20.1666	0.955095
29.9986	0.911397
40.0927	0.955095
49.7935	0.955095
59.7566	0.955095
