Adsorption isotherm of Hydrogen on [Li0.5H0.5]+[In(C16H6O8)]-
DOI: 10.1021/Ie100214a
Adsorbate Hydrogen: InChIKey UFHFLCQGNIYNRP-UHFFFAOYSA-N
Temperature: 298 K
Tabular data in the source: 0
pressure (bar)	uptake (mmol/g)
2.99354	0.124843
10.0725	0.16854
20.0356	0.212238
30.654	0.255935
40.3549	0.255935
50.449	0.299633
60.412	0.255935
