Adsorption isotherm of Nitrogen on H-ImCOF
DOI: 10.1021/jacs.9b02448
Article source: Figure 2(c)
Adsorbate Nitrogen: InChIKey IJGRMHOSHXDMSA-UHFFFAOYSA-N
Kind: experiment
Temperature: 77 K
Tabular data in the source: 0
pressure (bar)	uptake (cm3(STP)/g)
0.005259	100.472
0.007366	114.623
0.007366	125.943
0.007366	135.849
0.026304	161.321
0.049457	183.962
0.075761	203.774
0.099957	223.585
0.125207	247.642
0.150457	312.736
0.177815	322.642
0.204119	328.302
0.230423	333.962
0.256727	341.038
0.280934	346.698
0.306184	350.943
0.332488	355.896
0.356684	359.434
0.382998	363.679
0.408249	367.925
0.434553	370.755
0.459803	375.708
0.483999	378.538
0.509259	384.198
0.53451	389.858
0.55976	394.104
0.586064	398.349
0.611314	400.472
0.636574	404.717
0.659717	408.962
0.687075	411.792
0.713379	414.623
0.737575	417.453
0.762835	420.283
0.788086	423.821
0.81439	426.651
0.83964	431.604
0.86489	435.142
0.889096	440.802
0.9154	445.047
0.939597	451.415
0.963793	465.566
0.988	487.5
1.00483	558.962
0.049457	200.943
0.102065	241.981
0.149414	331.132
0.19886	345.991
0.251468	356.604
0.301979	363.679
0.350372	372.17
0.405087	379.245
0.455598	387.736
0.506098	402.594
0.556609	408.962
0.608163	415.33
0.657609	422.406
0.710217	428.774
0.760728	435.849
0.811228	444.34
0.861739	452.83
0.916454	466.981
0.965901	495.283
