Adsorption isotherm of Nitrogen on H-IM-Li-COF
DOI: 10.1021/jacs.9b02448
Article source: Figure 2(c)
Adsorbate Nitrogen: InChIKey IJGRMHOSHXDMSA-UHFFFAOYSA-N
Kind: experiment
Temperature: 77 K
Tabular data in the source: 0
pressure (bar)	uptake (cm3(STP)/g)
0.003161	25.4717
0.009474	35.3774
0.02525	48.8208
0.052608	60.8491
0.078912	70.7547
0.104162	80.6604
0.129422	91.9811
0.154673	115.33
0.179923	125.236
0.205173	131.604
0.230423	135.849
0.255684	141.509
0.280934	144.34
0.308291	148.585
0.332488	152.123
0.357738	154.953
0.384042	161.321
0.409302	165.566
0.433499	167.689
0.458749	171.226
0.485053	173.349
0.511357	176.887
0.53451	179.009
0.560814	181.132
0.586064	188.208
0.611314	191.745
0.636574	193.868
0.661825	195.283
0.688128	198.113
0.714432	200.943
0.737575	203.774
0.764933	208.019
0.790183	215.094
0.813336	220.755
0.838586	225
0.863836	230.66
0.89014	236.321
0.9154	244.811
0.938543	256.132
0.964847	278.774
0.990097	312.736
1.00273	376.415
1.00694	383.491
0.048403	98.3491
0.099957	125.943
0.147306	163.443
0.197807	174.764
0.258835	183.962
0.300925	189.623
0.351425	196.698
0.40299	201.651
0.45349	208.019
0.503991	219.34
0.554501	220.755
0.605001	225.708
0.654458	232.075
0.706012	236.321
0.756523	244.104
0.808077	252.594
0.859631	258.962
0.910132	269.575
0.959588	297.17
