Adsorption isotherm of Nitrogen on CF3-ImCOF
DOI: 10.1021/jacs.9b02448
Article source: Figure S17
Adsorbate Nitrogen: InChIKey IJGRMHOSHXDMSA-UHFFFAOYSA-N
Kind: experiment
Temperature: 77 K
Tabular data in the source: 0
pressure (bar)	uptake (cm3(STP)/g)
0.002807	44.7489
0.004681	52.968
0.00843	59.3607
0.010305	67.5799
0.023416	79.452
0.046822	90.411
0.073045	101.37
0.099268	111.416
0.124549	119.635
0.150772	126.027
0.177927	130.137
0.203207	134.247
0.227556	138.356
0.253779	141.553
0.280002	144.749
0.30435	148.858
0.32963	151.598
0.354921	155.251
0.381144	157.991
0.406425	161.644
0.430773	164.84
0.456054	168.95
0.482277	171.689
0.5085	174.429
0.53378	177.169
0.557196	180.822
0.583419	183.562
0.609632	187.215
0.63398	190.411
0.660203	192.694
0.684552	196.347
0.710775	199.087
0.735123	201.826
0.760404	205.023
0.785694	209.132
0.811907	212.329
0.837198	215.525
0.862478	219.178
0.887769	221.918
0.91305	225.571
0.937398	230.137
0.961747	235.616
0.987969	242.009
1.00294	254.795
0.049629	105.023
0.099268	123.288
0.147023	136.53
0.198526	145.205
0.255653	152.511
0.297794	157.991
0.349298	163.927
0.403618	170.32
0.457928	177.169
0.509432	183.562
0.553447	189.041
0.606825	194.521
0.659271	200.457
0.712649	207.306
0.753848	210.959
0.806294	217.808
0.857797	223.744
0.91305	230.137
0.965496	237.443
