Adsorption isotherm of Nitrogen on CH3-ImCOF
DOI: 10.1021/jacs.9b02448
Article source: Figure S16
Adsorbate Nitrogen: InChIKey IJGRMHOSHXDMSA-UHFFFAOYSA-N
Kind: experiment
Temperature: 77 K
Tabular data in the source: 0
pressure (bar)	uptake (cm3(STP)/g)
0.006779	59.5657
0.011865	68.2523
0.027115	80.6618
0.049132	91.8304
0.074555	102.378
0.099967	111.686
0.127082	120.372
0.153345	126.577
0.179609	130.3
0.203329	135.264
0.230433	138.987
0.254164	141.468
0.279576	146.432
0.304988	148.914
0.330411	153.258
0.382086	158.842
0.43207	166.287
0.482905	172.492
0.510009	174.974
0.53374	177.456
0.559152	181.179
0.583723	183.04
0.611679	188.625
0.633707	191.107
0.660811	193.588
0.684542	197.932
0.709954	199.173
0.736217	203.516
0.760789	205.998
0.78535	209.721
0.813316	212.203
0.837036	215.926
0.862448	219.028
0.888711	222.13
0.913283	225.853
0.937854	230.196
0.964118	235.781
0.987838	242.606
1.00478	256.256
0.050835	105.481
0.100818	123.475
0.147408	136.505
0.200786	144.571
0.256697	152.637
0.299061	157.601
0.350736	165.047
0.404966	171.251
0.469348	174.974
0.552373	189.245
0.607443	194.209
0.65997	201.034
0.713338	207.239
0.754851	211.582
0.806537	217.166
0.857361	223.992
0.913283	230.817
0.96581	237.642
1.00138	253.154
