Adsorption isotherm of Nitrogen on CF3-IM-Li-COF
DOI: 10.1021/jacs.9b02448
Article source: Figure S17
Adsorbate Nitrogen: InChIKey IJGRMHOSHXDMSA-UHFFFAOYSA-N
Kind: experiment
Temperature: 77 K
Tabular data in the source: 0
pressure (bar)	uptake (cm3(STP)/g)
0.002807	76.7123
0.004681	82.1918
0.006556	90.411
0.00843	96.8036
0.00843	103.196
0.023416	120.091
0.044016	136.073
0.070238	150.685
0.094587	164.384
0.122674	177.169
0.150772	184.475
0.176995	189.041
0.203207	192.694
0.228498	194.977
0.253779	198.174
0.278127	200
0.306224	202.74
0.328698	205.479
0.355853	207.306
0.381144	210.046
0.407357	211.872
0.430773	213.699
0.457928	216.438
0.482277	218.265
0.5085	220.091
0.531906	221.461
0.559071	223.288
0.584351	225.571
0.6087	227.397
0.63398	229.224
0.661146	230.594
0.685484	232.42
0.710775	233.79
0.736055	236.53
0.761346	237.443
0.786627	239.269
0.811907	241.096
0.837198	242.922
0.864353	244.749
0.887769	246.119
0.915856	248.402
0.93833	250.228
0.963621	252.968
0.988902	257.534
1.00294	268.493
0.049629	147.489
0.101143	175.799
0.147965	192.694
0.197594	199.087
0.248165	203.653
0.298726	208.219
0.35024	212.329
0.400801	215.982
0.452315	219.178
0.502876	223.744
0.553447	226.941
0.604019	230.137
0.653648	233.333
0.705151	236.073
0.756665	239.726
0.806294	242.009
0.856865	245.662
0.909301	249.315
0.961747	253.881
