Adsorption isotherm of Nitrogen on CH3-IM-Li-COF
DOI: 10.1021/jacs.9b02448
Article source: Figure S16
Adsorbate Nitrogen: InChIKey IJGRMHOSHXDMSA-UHFFFAOYSA-N
Kind: experiment
Temperature: 77 K
Tabular data in the source: 0
pressure (bar)	uptake (cm3(STP)/g)
0.005087	31.0238
0.008471	39.7104
0.025412	48.3971
0.054219	59.5657
0.077939	68.2523
0.103362	77.5595
0.129625	86.2461
0.155037	93.0714
0.179609	99.2761
0.20418	106.101
0.230433	112.927
0.255856	118.511
0.281268	124.095
0.306691	130.3
0.331252	135.884
0.356674	142.709
0.382938	147.673
0.40835	153.258
0.432921	158.221
0.458334	165.047
0.484597	171.872
0.508317	178.077
0.53374	183.661
0.559152	189.866
0.586266	194.209
0.609136	200.414
0.635399	208.48
0.660811	215.926
0.685383	222.13
0.710805	228.335
0.737058	234.54
0.762481	241.986
0.786201	250.672
0.811613	259.359
0.837877	269.286
0.862448	277.973
0.88786	289.142
0.911591	302.172
0.937854	320.786
0.959031	344.364
0.983602	384.695
1.00309	519.959
0.052527	69.4933
0.098275	86.8666
0.155037	104.86
0.199093	116.649
0.256697	130.92
0.299912	142.089
0.355823	155.119
0.40835	167.528
0.452406	178.077
0.510009	192.968
0.552373	203.516
0.604049	216.546
0.661662	230.817
0.705718	241.365
0.757394	254.395
0.808229	270.527
0.863299	291.003
0.914975	315.822
0.960723	360.496
1.00054	516.236
