Adsorption isotherm of Hydrogen on Ni foam
DOI: 10.1016/j.jallcom.2015.01.083
Article source: Figure 3a
Adsorbate Hydrogen: InChIKey UFHFLCQGNIYNRP-UHFFFAOYSA-N
Kind: experiment
Temperature: 77 K
Tabular data in the source: 0
pressure (bar)	uptake (wt%)
0.015345	0.00874
0.048233	0.017323
0.083321	0.017012
0.116216	0.01672
0.149111	0.016428
0.181999	0.025012
0.214901	0.015844
0.247789	0.024428
0.278491	0.024155
0.31138	0.032739
0.346474	0.023552
0.381555	0.032116
0.416643	0.031805
0.449532	0.040389
0.482427	0.040097
0.517515	0.039785
0.548217	0.039513
0.581099	0.056973
0.61838	0.056642
0.653461	0.065206
0.686356	0.064914
0.719251	0.064622
0.754345	0.055435
0.787234	0.064019
0.822322	0.063707
0.868362	0.08105
0.89907	0.071902
0.936345	0.080447
0.971426	0.089011
