Adsorption isotherm of Hydrogen on Ni foam-MIL-101 (27%)
DOI: 10.1016/j.jallcom.2015.01.083
Article source: Figure 3a
Adsorbate Hydrogen: InChIKey UFHFLCQGNIYNRP-UHFFFAOYSA-N
Kind: experiment
Temperature: 77 K
Tabular data in the source: 0
pressure (bar)	uptake (wt%)
0.008753	0.02655
0.030644	0.07961
0.059139	0.097108
0.083243	0.123522
0.111733	0.149896
0.144608	0.176231
0.17311	0.184854
0.203799	0.202333
0.234495	0.210936
0.267383	0.21952
0.298072	0.236999
0.333154	0.245564
0.366036	0.263023
0.398924	0.271607
0.431806	0.289067
0.464695	0.297651
0.497583	0.306234
0.532665	0.314799
0.565553	0.323383
0.596249	0.331986
0.63133	0.34055
0.664218	0.349134
0.686142	0.357815
0.697107	0.357718
0.716837	0.366419
0.732188	0.366282
0.747539	0.366146
0.758504	0.366049
0.767276	0.365971
0.778228	0.383625
0.793579	0.383489
0.806744	0.374496
0.815509	0.383294
0.835246	0.383119
0.85717	0.3918
0.876907	0.391625
0.894444	0.400345
0.916374	0.400151
0.933912	0.408871
0.953649	0.408695
0.968993	0.417435
0.993123	0.408345
