Adsorption isotherm of Hydrogen on MIL-101
DOI: 10.1016/j.jallcom.2015.01.083
Article source: Figure 3a
Adsorbate Hydrogen: InChIKey UFHFLCQGNIYNRP-UHFFFAOYSA-N
Kind: experiment
Temperature: 77 K
Tabular data in the source: 0
pressure (bar)	uptake (wt%)
0.006495	0.115327
0.012989	0.230654
0.026082	0.319295
0.036996	0.390204
0.050102	0.461094
0.063214	0.523108
0.076327	0.585121
0.089446	0.638259
0.102571	0.682522
0.117883	0.73564
0.135395	0.779863
0.14852	0.824126
0.166032	0.868349
0.181357	0.903716
0.196675	0.947959
0.214193	0.983306
0.229519	1.01867
0.247037	1.05402
0.262368	1.08051
0.279886	1.11586
0.299597	1.15119
0.314922	1.18655
0.334633	1.22188
0.352164	1.23948
0.367496	1.26597
0.387207	1.3013
0.406924	1.32775
0.422256	1.35424
0.441973	1.38069
0.459498	1.40716
0.477029	1.42476
0.494553	1.45123
0.514264	1.48656
0.529609	1.4953
0.549326	1.52175
0.566857	1.53935
0.584382	1.56582
0.604099	1.59227
0.628203	1.61868
0.645734	1.63628
0.661065	1.66277
0.685169	1.68918
0.702706	1.6979
0.724617	1.72434
0.742141	1.75081
0.764058	1.76837
0.785975	1.78592
0.805706	1.79462
0.82761	1.82993
0.85172	1.84747
0.869251	1.86507
0.893361	1.8826
0.913085	1.90018
0.92623	1.91781
