Adsorption isotherm of Hydrogen on Ni foam-MIL-101 (81%)
DOI: 10.1016/j.jallcom.2015.01.083
Article source: Figure 3a
Adsorbate Hydrogen: InChIKey UFHFLCQGNIYNRP-UHFFFAOYSA-N
Kind: experiment
Temperature: 77 K
Tabular data in the source: 0
pressure (bar)	uptake (wt%)
0.00438	0.008837
0.006547	0.044321
0.010887	0.106412
0.026167	0.20391
0.058938	0.372258
0.065498	0.398827
0.072064	0.41652
0.08081	0.451945
0.089569	0.469619
0.098322	0.496169
0.109267	0.522699
0.115827	0.549268
0.216542	0.770267
0.240639	0.805556
0.31731	0.920261
0.361131	0.973126
0.486021	1.12291
0.604352	1.24612
0.718317	1.34274
0.843246	1.43926
0.922149	1.50069
