Adsorption isotherm of Hydrogen on Ni foam-MIL-101 (60%)
DOI: 10.1016/j.jallcom.2015.01.083
Article source: Figure 3a
Adsorbate Hydrogen: InChIKey UFHFLCQGNIYNRP-UHFFFAOYSA-N
Kind: experiment
Temperature: 77 K
Tabular data in the source: 0
pressure (bar)	uptake (wt%)
0.028405	0.14176
0.043717	0.194878
0.061229	0.239102
0.076554	0.274468
0.096278	0.292045
0.115989	0.327373
0.133507	0.36272
0.153231	0.380297
0.170749	0.415644
0.194859	0.433182
0.214583	0.450758
0.232114	0.468354
0.254031	0.485911
0.269369	0.503526
0.293479	0.521064
0.315396	0.538621
0.335113	0.565073
0.35923	0.573735
0.37896	0.582435
0.400864	0.617744
0.420595	0.626444
0.442518	0.635126
0.464435	0.652683
0.484166	0.661383
0.50389	0.67896
0.528006	0.687621
0.549923	0.705178
0.569654	0.713879
0.587185	0.731475
0.613488	0.748993
0.635411	0.757674
0.655148	0.757499
0.677065	0.775056
0.701181	0.783717
0.720905	0.801294
0.742822	0.818851
0.762559	0.818676
0.784483	0.827357
0.808593	0.844894
0.830516	0.853575
0.85244	0.862256
0.87217	0.870957
0.894094	0.879638
0.916017	0.888319
0.935748	0.89702
0.957671	0.905701
0.981788	0.914363
