Adsorption isotherm of Water, Ag(V) on granular Mn-oxide-doped Al oxide (GMAO)
DOI: 10.1007/s11356-017-9465-8
Article source: Figure 5
Adsorbate Water: InChIKey XLYOFNOQVPJJNP-UHFFFAOYSA-N
Adsorbate Ag(V): InChIKey XQDXERXVPWZIDR-UHFFFAOYSA-N
Kind: experiment
Temperature: 298 K
Tabular data in the source: 0
pressure (bar)	Water fraction	Water uptake (mg/g)	Ag(V) fraction	Ag(V) uptake (mg/g)	total uptake (mg/g)
1.01325			3.412	3.745	
1.01325			8.89	6.043	
1.01325			15.606	7.094	
1.01325			20.731	9.442	
1.01325			33.544	12.641	
1.01325			45.65	15.191	
1.01325			57.49	18.94	
1.01325			71.099	20.991	
1.01325			89.481	22.244	
