Adsorption isotherm of Ag(III), Water on granular Mn-oxide-doped Al oxide (GMAO)
DOI: 10.1007/s11356-017-9465-8
Article source: Figure 5
Adsorbate Ag(III): InChIKey QWWUPSPHPYNVRP-UHFFFAOYSA-N
Adsorbate Water: InChIKey XLYOFNOQVPJJNP-UHFFFAOYSA-N
Kind: experiment
Temperature: 298 K
Tabular data in the source: 0
pressure (bar)	Ag(III) fraction	Ag(III) uptake (mg/g)	Water fraction	Water uptake (mg/g)	total uptake (mg/g)
1.01325	4.734	9.488			
1.01325	8.621	11.886			
1.01325	13.656	15.283			
1.01325	16.305	18.679			
1.01325	19.748	24.074			
1.01325	28.848	28.52			
1.01325	38.656	31.669			
1.01325	52.265	33.72			
1.01325	75.243	34.825			
