Adsorption isotherm of Nitrogen on granular Mn-oxide-doped Al oxide (GMAO)
DOI: 10.1007/s11356-017-9465-8
Article source: Figure 2
Adsorbate Nitrogen: InChIKey IJGRMHOSHXDMSA-UHFFFAOYSA-N
Kind: experiment
Temperature: 77 K
Tabular data in the source: 0
pressure (bar)	uptake (cm3(STP)/g)
0.198694	15.33
0.205007	16.314
0.246752	17.411
0.276926	15.993
0.302885	20.477
0.311305	18.074
0.346737	19.935
0.351297	17.859
0.401817	21.471
0.406032	19.285
0.451982	22.897
0.464617	19.947
0.493028	24.432
0.510577	21.264
0.547063	25.749
0.560742	23.127
0.59582	27.721
0.604594	25.427
0.648791	29.585
0.661781	26.635
0.690891	33.305
0.710538	29.81
0.739516	36.92
0.774047	34.841
0.782953	41.609
0.81637	38.315
0.831963	49.075
0.86314	48.557
0.894327	69.208
0.912697	66.434
0.938302	100.444
0.953348	90.035
0.96112	133.934
0.970593	119.013
0.972245	164.647
0.97727	142.958
0.984495	183.907
0.986167	166.557
0.990057	193.972
1.00677	196.402
