Adsorption isotherm of Hydrogen on Carbon
DOI: 10.1021/La302050m
Adsorbate Hydrogen: InChIKey UFHFLCQGNIYNRP-UHFFFAOYSA-N
Temperature: 87 K
Tabular data in the source: 0
pressure (bar)	uptake (mmol/g)
0.943566	7.60467
1.60631	9.17778
3.08474	11.5811
5.7867	13.766
8.48866	15.1206
11.0887	16.082
14.9122	17.0433
19.7553	17.8299
25.2102	18.2669
30.3593	18.1795
