Adsorption isotherm of Hydrogen on Carbon
DOI: 10.1021/La302050m
Adsorbate Hydrogen: InChIKey UFHFLCQGNIYNRP-UHFFFAOYSA-N
Temperature: 77 K
Tabular data in the source: 0
pressure (bar)	uptake (mmol/g)
0.29329	9.10155
0.599172	11.7889
0.905055	14.1486
1.59329	16.5083
3.1227	19.8511
5.79917	22.6696
8.62858	24.4394
12.5286	25.8814
17.7286	27.1923
23.4639	27.7822
27.4403	27.8478
31.7992	27.52
