Adsorption isotherm of Nitrogen on Carbon
DOI: 10.1021/La302050m
Adsorbate Nitrogen: InChIKey IJGRMHOSHXDMSA-UHFFFAOYSA-N
Temperature: 77 K
Tabular data in the source: 0
pressure (bar)	uptake (ml/g)
0.000865	11.3717
0.000865	189.854
0.00372489	224.177
0.025177	253.352
0.0480593	265.365
0.100975	277.378
0.15675	282.527
0.209665	285.959
0.259721	289.392
0.369842	291.108
0.462801	294.54
0.564341	292.824
0.663021	294.54
0.768851	294.54
0.868961	297.972
0.916156	297.972
0.990524	301.405
