Adsorption isotherm of Hydrogen on Carbon
DOI: 10.1021/La302050m
Adsorbate Hydrogen: InChIKey UFHFLCQGNIYNRP-UHFFFAOYSA-N
Temperature: 77 K
Tabular data in the source: 0
pressure (bar)	uptake (mmol/g)
1.91219	11.9744
2.72788	13.8534
4.00239	15.6887
5.5318	17.0433
8.64161	18.9223
10.4259	19.4904
12.2102	20.1022
17.92	21.2383
21.6416	21.5442
25.6691	21.8938
30.5632	21.9374
