Adsorption isotherm of Hydrogen on Carbon
DOI: 10.1021/La302050m
Adsorbate Hydrogen: InChIKey UFHFLCQGNIYNRP-UHFFFAOYSA-N
Temperature: 298 K
Tabular data in the source: 0
pressure (bar)	uptake (mmol/g)
34.5828	1.48561
59.8963	2.81565
78.3452	3.50211
93.3617	4.01697
102.801	4.44601
155.573	5.77604
191.613	6.67703
211.778	6.97736
226.794	7.23479
253.395	7.62093
270.127	7.79254
280.853	7.96416
292.009	8.09287
