Adsorption isotherm of Hydrogen on Carbon
DOI: 10.1021/La302050m
Adsorbate Hydrogen: InChIKey UFHFLCQGNIYNRP-UHFFFAOYSA-N
Temperature: 298 K
Tabular data in the source: 0
pressure (bar)	uptake (mmol/g)
7.55311	0.241388
34.1538	0.713336
61.1835	1.314
78.7742	1.57142
92.9326	1.87175
103.23	2.04337
156.431	2.3437
191.613	2.51532
215.639	2.64403
227.652	2.64403
