Adsorption isotherm of Hydrogen on Carbon
DOI: 10.1021/La302050m
Adsorbate Hydrogen: InChIKey UFHFLCQGNIYNRP-UHFFFAOYSA-N
Temperature: 298 K
Tabular data in the source: 0
pressure (bar)	uptake (mmol/g)
27.7181	1.01367
49.5993	2.00046
64.6158	2.68693
75.7709	3.15888
84.7808	3.3734
137.124	4.96086
172.306	5.47571
193.758	5.94766
207.058	6.24799
221.646	6.63413
249.962	7.02027
266.266	7.23479
276.992	7.3206
287.289	7.49221
