Adsorption isotherm of Hydrogen on Carbon
DOI: 10.1021/La302050m
Adsorbate Hydrogen: InChIKey UFHFLCQGNIYNRP-UHFFFAOYSA-N
Temperature: 77 K
Tabular data in the source: 0
pressure (bar)	uptake (mmol/g)
1.91219	9.92064
3.39062	10.6635
4.56317	11.1005
5.83768	11.5374
7.57102	11.8433
9.86513	12.2803
14.5043	12.6299
17.2063	12.8047
20.7749	12.9358
24.4455	12.9795
27.8612	12.8921
29.9514	13.0232
