Adsorption isotherm of Hydrogen on Carbon
DOI: 10.1021/La302050m
Adsorbate Hydrogen: InChIKey UFHFLCQGNIYNRP-UHFFFAOYSA-N
Temperature: 77 K
Tabular data in the source: 0
pressure (bar)	uptake (mmol/g)
0.140349	0.383903
0.752113	9.69147
1.44035	13.0999
2.12858	15.394
2.66388	17.0982
3.58153	19.1301
5.18741	21.3587
7.558	23.5873
10.8462	25.6192
14.7462	26.9957
18.6462	27.8478
23.5403	28.3721
29.4286	28.3721
32.7168	28.241
