Adsorption isotherm of Nitrogen on Carbon
DOI: 10.1021/La302050m
Adsorbate Nitrogen: InChIKey IJGRMHOSHXDMSA-UHFFFAOYSA-N
Temperature: 77 K
Tabular data in the source: 0
pressure (bar)	uptake (ml/g)
0.000865	352.89
0.00515504	471.306
0.0308976	613.748
0.0566402	684.111
0.0895335	723.583
0.136728	763.055
0.192504	788.797
0.298334	824.837
0.397014	848.863
0.492834	874.606
0.592944	893.484
0.693054	912.362
0.764561	926.091
0.85752	948.401
0.919016	965.563
0.95906	982.725
0.987663	1032.49
