Adsorption isotherm of Hydrogen on Carbon
DOI: 10.1021/La302050m
Adsorbate Hydrogen: InChIKey UFHFLCQGNIYNRP-UHFFFAOYSA-N
Temperature: 298 K
Tabular data in the source: 0
pressure (bar)	uptake (mmol/g)
28.3053	1.11563
49.0095	2.14239
65.4884	2.89028
76.0518	3.24521
84.5025	3.53676
138.587	5.04521
171.967	5.69169
193.094	6.14802
206.193	6.4269
220.981	6.7438
248.869	7.28887
266.615	7.3776
278.024	7.45366
286.474	7.60577
