Adsorption isotherm of Nitrogen on Carbon
DOI: 10.1021/La302050m
Adsorbate Nitrogen: InChIKey IJGRMHOSHXDMSA-UHFFFAOYSA-N
Temperature: 77 K
Tabular data in the source: 0
pressure (bar)	uptake (ml/g)
0.00801532	687.543
0.0294675	828.269
0.0494895	893.484
0.0738019	941.537
0.109555	977.576
0.15389	1005.04
0.212526	1018.76
0.279743	1035.93
0.346959	1049.66
0.498554	1070.25
0.660161	1083.98
0.781723	1092.56
0.85895	1102.86
0.894704	1108.01
0.929027	1114.87
0.961921	1128.6
0.980513	1154.34
0.989093	1181.8
