Adsorption isotherm of Hydrogen on Carbon
DOI: 10.1021/La302050m
Adsorbate Hydrogen: InChIKey UFHFLCQGNIYNRP-UHFFFAOYSA-N
Temperature: 298 K
Tabular data in the source: 0
pressure (bar)	uptake (mmol/g)
35.0658	1.62267
59.9954	2.94098
79.8546	3.62549
92.5306	4.14521
103.939	4.57619
155.911	5.97056
190.559	6.7438
211.686	7.12408
226.052	7.36493
253.094	7.79591
270.418	8.0114
280.981	8.15084
291.122	8.26493
