Adsorption isotherm of Nitrogen on Carbon
DOI: 10.1021/La302050m
Adsorbate Nitrogen: InChIKey IJGRMHOSHXDMSA-UHFFFAOYSA-N
Temperature: 77 K
Tabular data in the source: 0
pressure (bar)	uptake (ml/g)
0.00229475	219.028
0.00658518	315.134
0.00944547	346.025
0.0294675	395.794
0.0780923	440.415
0.141019	467.873
0.203945	483.319
0.306915	497.048
0.399875	510.778
0.497124	521.075
0.598664	531.372
0.698774	543.385
0.770282	550.25
0.85752	562.263
0.916156	574.276
0.947619	584.573
0.974792	612.032
0.987663	675.53
