Adsorption isotherm of Hydrogen on Carbon
DOI: 10.1021/La302050m
Adsorbate Hydrogen: InChIKey UFHFLCQGNIYNRP-UHFFFAOYSA-N
Temperature: 87 K
Tabular data in the source: 0
pressure (bar)	uptake (mmol/g)
0.089063	0.0749208
0.599172	6.61079
1.59329	10.0847
2.05211	11.8545
3.1227	13.8864
4.20631	15.9946
9.86513	20.9761
12.4651	22.2433
17.1044	23.7727
22.5083	24.5156
26.3828	24.5593
30.4102	24.3845
