Adsorption isotherm of Hydrogen on Carbon
DOI: 10.1021/La302050m
Adsorbate Hydrogen: InChIKey UFHFLCQGNIYNRP-UHFFFAOYSA-N
Temperature: 87 K
Tabular data in the source: 0
pressure (bar)	uptake (mmol/g)
0.17886	3.84669
0.484742	7.2551
0.943566	9.52736
1.60631	11.7122
3.1867	14.8148
5.63376	17.5677
8.28474	19.6652
11.5985	21.4131
15.2181	22.5929
17.8691	23.2047
20.4691	23.598
26.2298	23.6416
28.9318	23.598
31.4808	23.3795
