Adsorption isotherm of Nitrogen on Zeolite Na-Y
DOI: 10.1021/La302050m
Adsorbate Nitrogen: InChIKey IJGRMHOSHXDMSA-UHFFFAOYSA-N
Temperature: 77 K
Tabular data in the source: 0
pressure (bar)	uptake (ml/g)
0.000865	85.1671
0.000865	196.718
0.00229475	7.93937
0.0165962	203.583
0.0523498	208.731
0.25829	215.596
0.371272	212.164
0.45565	212.164
0.5529	217.312
0.6573	217.312
0.75598	215.596
0.85466	219.028
0.943329	220.745
0.967641	227.609
0.987663	248.203
