Adsorption isotherm of Hydrogen on Carbon
DOI: 10.1021/La302050m
Adsorbate Hydrogen: InChIKey UFHFLCQGNIYNRP-UHFFFAOYSA-N
Temperature: 87 K
Tabular data in the source: 0
pressure (bar)	uptake (mmol/g)
0.22984	3.6282
0.484742	4.85173
1.24945	6.73073
2.62592	8.21644
4.46121	9.39627
7.31611	10.1828
9.35533	10.5324
11.8024	10.8383
13.9436	11.1005
16.8494	11.2316
19.8573	11.319
23.0691	11.3627
25.3122	11.4064
27.9122	11.4064
30.3593	11.4064
