Adsorption isotherm of Hydrogen on Carbon
DOI: 10.1021/La302050m
Adsorbate Hydrogen: InChIKey UFHFLCQGNIYNRP-UHFFFAOYSA-N
Temperature: 298 K
Tabular data in the source: 0
pressure (bar)	uptake (mmol/g)
35.0119	0.857565
60.7544	1.37242
78.3452	1.70707
93.7907	1.9645
104.088	2.11895
156.431	2.49222
192.471	2.69816
214.352	2.78826
228.939	2.82687
