Adsorption isotherm of Hydrogen on Carbon
DOI: 10.1021/La302050m
Adsorbate Hydrogen: InChIKey UFHFLCQGNIYNRP-UHFFFAOYSA-N
Temperature: 298 K
Tabular data in the source: 0
pressure (bar)	uptake (mmol/g)
0.259382	0.0697713
34.5828	1.18528
41.8765	1.48561
55.1769	1.91466
81.7775	2.77274
95.936	3.07307
105.804	3.45921
113.527	3.58792
152.999	4.4031
192.471	5.17538
223.791	5.60442
242.669	6.03347
273.131	6.16218
296.728	6.3338
