Adsorption isotherm of Hydrogen on Carbon
DOI: 10.1021/La302050m
Adsorbate Hydrogen: InChIKey UFHFLCQGNIYNRP-UHFFFAOYSA-N
Temperature: 298 K
Tabular data in the source: 0
pressure (bar)	uptake (mmol/g)
51.7445	0.90905
80.4904	1.39816
97.2231	1.68133
105.804	1.82291
114.385	1.90014
152.141	2.49222
193.329	3.09717
224.649	3.35459
242.669	3.57341
258.972	3.70212
268.411	3.76648
275.705	3.79222
