Adsorption isotherm of Nitrogen on Carbon
DOI: 10.1021/La302050m
Adsorbate Nitrogen: InChIKey IJGRMHOSHXDMSA-UHFFFAOYSA-N
Temperature: 77 K
Tabular data in the source: 0
pressure (bar)	uptake (ml/g)
0.00372489	485.035
0.0194565	560.547
0.0509196	649.788
0.0981143	742.461
0.145309	838.566
0.199654	938.104
0.25114	1003.32
0.302625	1051.37
0.348389	1080.55
0.445639	1102.86
0.647289	1126.88
0.838928	1138.9
0.946189	1152.63
0.991954	1178.37
