Adsorption isotherm of Hydrogen on Carbon
DOI: 10.1021/La302050m
Adsorbate Hydrogen: InChIKey UFHFLCQGNIYNRP-UHFFFAOYSA-N
Temperature: 298 K
Tabular data in the source: 0
pressure (bar)	uptake (mmol/g)
35.4409	1.32093
41.8765	1.6041
56.035	2.01598
81.7775	2.83974
95.0779	3.22588
106.233	3.54766
113.956	3.70212
152.57	4.5645
194.616	5.42687
222.933	5.78727
241.811	6.09618
273.131	6.28925
298.015	6.48232
