Adsorption isotherm of Carbon Dioxide on Cu2(dhtp)
DOI: 10.1039/C2dt32138f
Adsorbate Carbon Dioxide: InChIKey CURLTUGMZLYLDI-UHFFFAOYSA-N
Temperature: 338 K
Tabular data in the source: 0
pressure (bar)	uptake (mg/g)
0.108158	7.37461
0.554363	19.5308
1.30948	40.983
2.44215	66.368
3.97812	88.1777
5.61707	107.485
