Adsorption isotherm of Carbon Dioxide on Cu2(dhtp)
DOI: 10.1039/C2dt32138f
Adsorbate Carbon Dioxide: InChIKey CURLTUGMZLYLDI-UHFFFAOYSA-N
Temperature: 318 K
Tabular data in the source: 0
pressure (bar)	uptake (mg/g)
0.0995771	9.51982
0.545782	29.5418
1.3009	62.7926
2.40783	105.697
3.99529	138.948
5.66855	165.048
