Adsorption isotherm of Carbon Dioxide on Cu2(dhtp)
DOI: 10.1039/C2dt32138f
Adsorbate Carbon Dioxide: InChIKey CURLTUGMZLYLDI-UHFFFAOYSA-N
Temperature: 298 K
Tabular data in the source: 0
pressure (bar)	uptake (mg/g)
0.108158	12.3801
0.52862	50.994
1.29232	112.848
2.3735	170.768
3.98671	211.885
5.68572	240.488
