Adsorption isotherm of Nitrogen on carbon-ZX
DOI: 10.1021/acs.jpcc.7b04213
Article source: Figure 3
Adsorbate Nitrogen: InChIKey IJGRMHOSHXDMSA-UHFFFAOYSA-N
Kind: experiment
Temperature: 298 K
Tabular data in the source: 0
pressure (bar)	uptake (mmol/g)
0.01827	0.0257
0.04788	0.0419
0.07861	0.0581
0.09881	0.0662
0.13314	0.077
0.16081	0.0742
0.19071	0.0796
0.20925	0.0823
0.24053	0.108
0.27015	0.1174
0.33132	0.1322
0.39996	0.166
0.46888	0.1929
0.53476	0.2118
0.59842	0.2361
0.66955	0.2536
0.73847	0.2806
0.80324	0.2981
0.86773	0.3156
0.93416	0.3332
1.00253	0.3331
1.0673	0.3614
1.13899	0.3735
1.16833	0.3789
