Adsorption isotherm of Xenon on carbon-ZX
DOI: 10.1021/acs.jpcc.7b04213
Article source: Figure 3
Adsorbate Xenon: InChIKey FHNFHKCVQCLJFQ-UHFFFAOYSA-N
Kind: experiment
Temperature: 298 K
Tabular data in the source: 0
pressure (bar)	uptake (mmol/g)
0.01356	0.4328
0.03847	0.8669
0.09079	1.42
0.11957	1.6675
0.13175	1.7459
0.15777	1.9325
0.186	2.0948
0.2134	2.2408
0.23832	2.3625
0.26074	2.4855
0.33325	2.7884
0.40743	3.0345
0.46971	3.2441
0.60285	3.601
0.66928	3.7673
0.73515	3.9065
0.79964	4.0579
0.8669	4.1539
0.93361	4.2945
1.0017	4.3945
1.072	4.5053
1.10134	4.5662
1.13816	4.5999
1.16916	4.6418
