Adsorption isotherm of Nitrogen on Calcinated Silicalite-1
DOI: 10.1016/j.memsci.2009.05.006
Adsorbate Nitrogen: InChIKey IJGRMHOSHXDMSA-UHFFFAOYSA-N
Temperature: 77 K
Tabular data in the source: 0
pressure (bar)	uptake (cm3(STP)/g)
0.0145486	3.1614
0.0339466	3.22359
0.0598107	6.42127
0.0775923	6.47827
0.0986069	6.54565
0.105073	9.68113
0.12932	19.1031
0.140636	75.205
0.155185	84.5959
0.185898	106.498
0.234393	109.768
0.255408	109.835
0.282889	109.923
0.307136	113.116
0.328151	116.298
0.352398	113.261
0.376646	113.339
0.572243	117.081
0.596491	114.044
0.622355	117.241
0.643369	111.079
0.695098	111.245
0.74036	117.62
0.764607	114.583
0.787238	120.885
0.813102	120.968
0.83735	121.045
0.863214	121.128
0.887462	118.091
0.93434	127.586
0.950505	136.982
0.968287	161.957
0.97152	190
