Adsorption isotherm of Nitrogen on Ozonicated Silicalite-1
DOI: 10.1016/j.memsci.2009.05.006
Adsorbate Nitrogen: InChIKey IJGRMHOSHXDMSA-UHFFFAOYSA-N
Temperature: 77 K
Tabular data in the source: 0
pressure (bar)	uptake (cm3(STP)/g)
0.00641997	3.9389
0.0321349	15.7816
0.0562361	27.6178
0.0771098	39.441
0.0964398	43.4319
0.109315	47.3968
0.131802	59.2265
0.159201	63.2499
0.181689	75.0796
0.202597	82.9899
0.230031	83.1004
0.259044	87.1303
0.279988	91.1277
0.305808	91.2317
0.328401	91.3227
0.354186	95.3396
0.378357	99.35
0.400915	103.354
0.425121	103.451
0.473499	107.559
0.500968	103.757
0.523526	107.761
0.546118	107.852
0.57029	111.862
0.594531	108.047
0.618702	112.057
0.642874	116.068
0.668694	116.172
0.689673	116.256
0.717107	116.367
0.739735	112.545
0.762292	116.549
0.788112	116.653
0.812319	116.75
0.836525	116.848
0.86231	120.864
0.884903	120.955
0.912337	121.066
0.931667	125.057
0.962293	129.093
0.968328	176.074
0.970397	125.213
