Adsorption isotherm of Nitrogen on ZSM-5
DOI: 10.1016/j.memsci.2009.05.006
Adsorbate Nitrogen: InChIKey IJGRMHOSHXDMSA-UHFFFAOYSA-N
Temperature: 77 K
Tabular data in the source: 0
pressure (bar)	uptake (cm3(STP)/g)
0.0113155	0
0.0307136	5.19481
0.0549612	14.2857
0.0872913	20.7792
0.0969903	22.0779
0.111539	27.2727
0.13417	29.8701
0.160034	33.7662
0.184282	36.3636
0.205296	38.961
0.23116	40.2597
0.258641	41.5584
0.281272	44.1558
0.307136	46.7532
0.328151	48.0519
0.354015	48.0519
0.379879	50.6494
0.40251	51.9481
0.426758	53.2468
0.452622	53.2468
0.476869	54.5455
0.501117	54.5455
0.525364	57.1429
0.549612	58.4416
0.572243	59.7403
0.598107	62.3377
0.623971	61.039
0.644986	63.6364
0.67085	66.2338
0.693481	66.2338
0.719345	68.8312
0.743593	70.1299
0.766224	72.7273
0.792088	76.6234
0.814719	80.5195
0.838967	83.1169
0.863214	87.013
0.887462	92.2078
0.911709	100
0.93434	111.688
0.945656	125.974
0.953738	140.26
0.965054	162.338
0.96667	197.403
