Adsorption isotherm of Methane on Woodford Shale
DOI: 10.1016/j.juogr.2016.03.003
Article source: Figure 18- woodford shale experiment
Adsorbate Methane: InChIKey VNWKTOKETHGBQD-UHFFFAOYSA-N
Kind: experiment
Isotherm type: excess
Temperature: 323 K
Tabular data in the source: 0
pressure (bar)	uptake (mmol/g)
0.798	0.02033
4.702	0.10061
7.709	0.14799
12.316	0.21375
19.353	0.29304
28.308	0.36747
38.543	0.43512
51.079	0.50953
63.296	0.57039
77.111	0.62156
90.094	0.66597
104.292	0.71134
114.525	0.73254
124.31	0.74795
133.136	0.7682
139.915	0.78072
