Adsorption isotherm of Methane on Green River Shale
DOI: 10.1016/j.juogr.2016.03.003
Article source: Figure 18- green river shale experiment
Adsorbate Methane: InChIKey VNWKTOKETHGBQD-UHFFFAOYSA-N
Kind: experiment
Isotherm type: excess
Temperature: 323 K
Tabular data in the source: 0
pressure (bar)	uptake (mmol/g)
4.758	0.04475
12.928	0.11082
23.432	0.17766
36.829	0.24681
54.336	0.31904
69.661	0.36899
83.058	0.40511
95.744	0.43125
108.43	0.45277
120.71	0.47353
130.402	0.48353
137.456	0.49353
142.175	0.49661
