Adsorption isotherm of Nitrogen on MIL-101
DOI: 10.1016/j.apcata.2013.09.011
Adsorbate Nitrogen: InChIKey IJGRMHOSHXDMSA-UHFFFAOYSA-N
Temperature: 77 K
Tabular data in the source: 0
pressure (bar)	uptake (cm3(STP)/g)
0.0042049	369.767
0.00773513	439.535
0.0112654	509.302
0.0182631	620.93
0.02854	690.698
0.0388012	753.488
0.0524357	816.279
0.0694279	872.093
0.0898091	934.884
0.106801	990.698
0.120436	1053.49
0.137475	1130.23
0.147674	1165.12
0.178112	1200
0.205177	1234.88
0.232446	1360.47
0.262869	1388.37
0.29326	1402.33
0.327009	1409.3
0.360758	1416.28
0.391134	1423.26
0.424883	1430.23
0.451885	1437.21
0.485634	1444.19
0.519384	1451.16
0.529519	1458.14
0.563253	1458.14
0.593628	1465.12
0.607122	1465.12
0.640871	1472.09
0.657737	1472.09
0.691486	1479.07
0.721862	1486.05
0.752238	1493.02
0.806227	1500
0.843349	1506.98
0.900743	1527.91
0.944675	1562.79
0.965056	1625.58
0.971991	1709.3
