Adsorption isotherm of Nitrogen on AC_1.8
DOI: 10.1016/j.apcata.2016.02.031
Article source: Figure 1
Adsorbate Nitrogen: InChIKey IJGRMHOSHXDMSA-UHFFFAOYSA-N
Kind: experiment
Temperature: 77 K
Tabular data in the source: 0
pressure (bar)	uptake (cm3(STP)/g)
0.000646	4.92
0.000737	47.64
0.001081	91.95
0.002064	155.47
0.002292	246.09
0.002553	275.11
0.005449	327.83
0.012001	371.34
0.015603	397.85
0.018918	410.36
0.032778	437.67
0.036926	441.27
0.04537	454.18
0.053514	461.48
0.064214	474.69
0.074823	479.29
0.086865	487
0.102906	495.91
0.114849	500.31
0.131867	506.62
0.148999	509.39
0.167969	509.56
0.189294	513.53
0.204111	514.49
0.263201	518.26
0.303203	520.67
0.308023	521.27
0.359613	525.89
0.405028	526.45
0.454932	529.01
0.506808	528.43
0.55669	529.49
0.608449	531.14
0.657082	532.71
0.689485	533.68
0.708696	535.43
0.758944	534.46
0.790995	534.72
0.810184	536.49
0.860537	535.95
0.893509	536.43
0.912232	538.5
0.962546	539.15
1.00219	540.11
