Adsorption isotherm of Nitrogen on AC_1.6
DOI: 10.1016/j.apcata.2016.02.031
Article source: Figure 1
Adsorbate Nitrogen: InChIKey IJGRMHOSHXDMSA-UHFFFAOYSA-N
Kind: experiment
Temperature: 77 K
Tabular data in the source: 0
pressure (bar)	uptake (cm3(STP)/g)
0.000477	4.61
0.001011	52.1
0.00118	120.78
0.001624	190.42
0.00211	227.87
0.002887	302.68
0.011169	351.91
0.018812	369.72
0.025446	380.73
0.035975	391.33
0.043442	397.34
0.054392	403.54
0.062172	407.15
0.073539	410.75
0.081524	413.95
0.094936	419.16
0.103236	419.96
0.11635	421.36
0.130082	421.56
0.147396	423.77
0.163486	423.77
0.187868	427.38
0.203957	427.38
0.264516	430.39
0.306534	430.2
0.361153	432.21
0.406085	433.99
0.455405	435.38
0.506802	432.36
0.55819	432.87
0.608801	434.4
0.660707	434.4
0.691175	435.92
0.707702	435.92
0.758728	435.47
0.789961	435.95
0.81119	436.11
0.861998	436.45
0.894667	435.45
0.916229	435.7
0.962889	435.98
1.00127	438.52
