Adsorption isotherm of Nitrogen on AC_4.0
DOI: 10.1016/j.apcata.2016.02.031
Article source: Figure 1
Adsorbate Nitrogen: InChIKey IJGRMHOSHXDMSA-UHFFFAOYSA-N
Kind: experiment
Temperature: 77 K
Tabular data in the source: 0
pressure (bar)	uptake (cm3(STP)/g)
0.00056	2.79
0.00078	31.57
0.001368	74.99
0.001478	282
0.001567	215.36
0.001612	194.19
0.001701	115.38
0.002321	328.2
0.003039	371.37
0.00389	411.01
0.004333	466.55
0.007916	493.82
0.012406	518.56
0.016757	550.88
0.024347	577.4
0.033349	610.99
0.039911	633.72
0.049953	663.02
0.056654	677.92
0.066457	692.83
0.075471	717.58
0.08423	739.81
0.094854	768.98
0.106103	781.32
0.109835	791.98
0.122674	811.24
0.141345	845.66
0.160819	877.62
0.179304	905.19
0.19948	930.27
0.205219	934.28
0.286487	993.79
0.292555	998.5
0.322073	1011.12
0.389609	1028.99
0.397908	1031.49
0.411175	1036.49
0.450332	1042.11
0.504819	1047.88
0.507022	1050.08
0.555702	1050.94
0.607003	1058.83
0.60855	1061.36
0.657665	1061.17
0.701348	1063.25
0.707552	1063.51
0.758857	1068.12
0.803499	1071.99
0.810506	1068.5
0.859192	1071.11
0.906898	1076.58
0.912276	1074.36
0.959657	1078.24
0.998851	1084.97
