Adsorption isotherm of Nitrogen on AC_5.0
DOI: 10.1016/j.apcata.2016.02.031
Article source: Figure 1
Adsorbate Nitrogen: InChIKey IJGRMHOSHXDMSA-UHFFFAOYSA-N
Kind: experiment
Temperature: 77 K
Tabular data in the source: 0
pressure (bar)	uptake (cm3(STP)/g)
0.00061	4.78
0.001155	81.64
0.001256	39.71
0.001539	124.36
0.002321	170.57
0.00242	209.51
0.002441	205.34
0.002543	212.97
0.003405	360.34
0.004275	403.7
0.005957	447.85
0.00829	488.8
0.014525	538.03
0.025412	570.24
0.038936	614.26
0.054132	645.27
0.071993	675.49
0.079746	690.7
0.094243	713.51
0.106188	732.72
0.122902	751.11
0.141048	776.07
0.163593	797.75
0.190015	817.92
0.205355	830.44
0.212317	833.05
0.277457	854.38
0.30511	862.19
0.33206	863.99
0.365458	869.2
0.400827	873.65
0.409443	876.19
0.456787	875.87
0.504764	882.55
0.508012	884.77
0.554219	883.51
0.605241	888.27
0.607079	888.63
0.657922	891.08
0.698723	892.59
0.710085	893.1
0.758764	893.61
0.7983	897.45
0.809163	897.45
0.860402	899.86
0.903241	900.26
0.912052	901.47
0.96227	901.87
0.999359	906.68
