Adsorption isotherm of Nitrogen on AC_2.5
DOI: 10.1016/j.apcata.2016.02.031
Article source: Figure 1
Adsorbate Nitrogen: InChIKey IJGRMHOSHXDMSA-UHFFFAOYSA-N
Kind: experiment
Temperature: 77 K
Tabular data in the source: 0
pressure (bar)	uptake (cm3(STP)/g)
0.000464	5.94
0.000865	38.27
0.001374	85.63
0.001758	147.77
0.002603	260.41
0.002703	212.29
0.003443	321.98
0.003993	377.74
0.00496	431.61
0.007978	484.07
0.017783	538.14
0.02887	564.51
0.04597	590.41
0.061116	610.13
0.074406	625.24
0.086081	636.86
0.09944	646.14
0.113657	653.86
0.132743	660.89
0.151692	666.63
0.173308	670.94
0.19265	674.14
0.20484	678.18
0.20768	678.6
0.263298	684.42
0.303818	687.74
0.311755	688.12
0.352661	689.92
0.404946	694.27
0.455706	695.32
0.505693	697.66
0.555351	698.94
0.605946	699.74
0.656414	700.04
0.690098	701.33
0.706491	701.34
0.758258	703.49
0.79051	703.94
0.808835	705.47
0.857759	703.75
0.893637	705.54
0.909122	706.57
0.960365	706.61
0.998689	710.43
