Adsorption isotherm of Carbon Dioxide, Propene on Zeolite 13X
DOI: 10.1016/0950-4214(94)80005-7
Article source: Table 3
Adsorbate Carbon Dioxide: InChIKey CURLTUGMZLYLDI-UHFFFAOYSA-N
Adsorbate Propene: InChIKey QQONPFPTGQHPMA-UHFFFAOYSA-N
Kind: experiment
Temperature: 293 K
Tabular data in the source: 0
pressure (bar)	Carbon Dioxide fraction	Carbon Dioxide uptake (mmol/g)	Propene fraction	Propene uptake (mmol/g)	total uptake (mmol/g)
0.002533	0.526	0.135	0.474	1.235	
0.032264	0.326	0.202	0.674	1.936	
0.235047	0.15	0.224	0.85	2.208	
0.461295	0.12	0.236	0.88	2.28	
0.658346	0.109	0.247	0.891	2.316	
0.800201	0.103	0.257	0.897	2.355	
