Adsorption isotherm of N-propane, Carbon Dioxide on Zeolite 13X
DOI: 10.1016/0950-4214(94)80005-7
Article source: Table 3
Adsorbate N-propane: InChIKey ATUOYWHBWRKTHZ-UHFFFAOYSA-N
Adsorbate Carbon Dioxide: InChIKey CURLTUGMZLYLDI-UHFFFAOYSA-N
Kind: experiment
Temperature: 293 K
Tabular data in the source: 0
pressure (bar)	N-propane fraction	N-propane uptake (mmol/g)	Carbon Dioxide fraction	Carbon Dioxide uptake (mmol/g)	total uptake (mmol/g)
0.004133	0.968	0.076	0.032	0.299	
0.007866	0.932	0.152	0.068	0.6	
0.017199	0.891	0.264	0.109	1.046	
0.028398	0.873	0.338	0.127	1.337	
0.070528	0.894	0.408	0.106	1.584	
0.347571	0.925	0.531	0.075	1.803	
0.636481	0.925	0.617	0.075	1.857	
0.912192	0.921	0.668	0.079	1.856	
