Adsorption isotherm of N-propane, Carbon Dioxide on Zeolite 13X
DOI: 10.1016/0950-4214(94)80005-7
Article source: Table 3
Adsorbate N-propane: InChIKey ATUOYWHBWRKTHZ-UHFFFAOYSA-N
Adsorbate Carbon Dioxide: InChIKey CURLTUGMZLYLDI-UHFFFAOYSA-N
Kind: experiment
Temperature: 293 K
Tabular data in the source: 0
pressure (bar)	N-propane fraction	N-propane uptake (mmol/g)	Carbon Dioxide fraction	Carbon Dioxide uptake (mmol/g)	total uptake (mmol/g)
0.007066	0.151	0.583	0.849	0.072	
0.023865	0.089	1.158	0.911	0.145	
0.054262	0.074	1.721	0.926	0.218	
0.096925	0.069	2.124	0.931	0.272	
0.171186	0.072	2.46	0.928	0.318	
0.380235	0.085	2.811	0.915	0.368	
0.574486	0.103	3.005	0.897	0.383	
0.853263	0.119	3.182	0.881	0.387	
