Adsorption isotherm of Propene, Ethene on Zeolite 13X
DOI: 10.1016/0950-4214(94)80005-7
Article source: Table 3
Adsorbate Propene: InChIKey QQONPFPTGQHPMA-UHFFFAOYSA-N
Adsorbate Ethene: InChIKey VGGSQFUCUMXWEO-UHFFFAOYSA-N
Kind: experiment
Temperature: 293 K
Tabular data in the source: 0
pressure (bar)	Propene fraction	Propene uptake (mmol/g)	Ethene fraction	Ethene uptake (mmol/g)	total uptake (mmol/g)
0.013332	0.01	0.573	0.99	0.543	
0.068261	0.049	1.059	0.951	0.916	
0.163187	0.069	1.286	0.931	0.96	
0.307441	0.097	1.483	0.903	0.911	
0.481294	0.133	1.656	0.867	0.836	
0.73114	0.182	1.826	0.818	0.747	
