Adsorption isotherm of Carbon Dioxide, Ethene on Zeolite 13X
DOI: 10.1016/0950-4214(94)80005-7
Article source: Table 3
Adsorbate Carbon Dioxide: InChIKey CURLTUGMZLYLDI-UHFFFAOYSA-N
Adsorbate Ethene: InChIKey VGGSQFUCUMXWEO-UHFFFAOYSA-N
Kind: experiment
Temperature: 293 K
Tabular data in the source: 0
pressure (bar)	Carbon Dioxide fraction	Carbon Dioxide uptake (mmol/g)	Ethene fraction	Ethene uptake (mmol/g)	total uptake (mmol/g)
0.004666	0.2	0.145	0.8	0.141	
0.026131	0.306	0.501	0.694	0.487	
0.063995	0.35	0.845	0.65	0.817	
0.170919	0.358	1.221	0.642	1.149	
0.363303	0.353	1.491	0.647	1.333	
0.619682	0.36	1.642	0.64	1.386	
0.929257	0.363	1.766	0.637	1.388	
