Adsorption isotherm of Propene, Ethene on Zeolite 13X
DOI: 10.1016/0950-4214(94)80005-7
Article source: Table 3
Adsorbate Propene: InChIKey QQONPFPTGQHPMA-UHFFFAOYSA-N
Adsorbate Ethene: InChIKey VGGSQFUCUMXWEO-UHFFFAOYSA-N
Kind: experiment
Temperature: 293 K
Tabular data in the source: 0
pressure (bar)	Propene fraction	Propene uptake (mmol/g)	Ethene fraction	Ethene uptake (mmol/g)	total uptake (mmol/g)
0.045996	0.017	0.57	0.983	1.038	
0.096925	0.025	0.756	0.975	1.242	
0.195451	0.032	0.877	0.968	1.344	
0.336772	0.042	1.031	0.958	1.363	
0.486627	0.055	1.159	0.945	1.357	
0.782469	0.075	1.337	0.925	1.243	
