Adsorption isotherm of N-propane, Ethene on Zeolite 13X
DOI: 10.1016/0950-4214(94)80005-7
Article source: Table 3
Adsorbate N-propane: InChIKey ATUOYWHBWRKTHZ-UHFFFAOYSA-N
Adsorbate Ethene: InChIKey VGGSQFUCUMXWEO-UHFFFAOYSA-N
Kind: experiment
Temperature: 293 K
Tabular data in the source: 0
pressure (bar)	N-propane fraction	N-propane uptake (mmol/g)	Ethene fraction	Ethene uptake (mmol/g)	total uptake (mmol/g)
0.008933	0.896	0.687	0.104	0.076	
0.016665	0.872	1.064	0.128	0.117	
0.03573	0.858	1.426	0.142	0.156	
0.107591	0.891	1.713	0.109	0.189	
0.226648	0.958	1.84	0.042	0.206	
0.470495	0.912	1.913	0.088	0.222	
0.776869	0.916	1.956	0.084	0.237	
