Adsorption isotherm of N-propane, Propene on Zeolite 13X
DOI: 10.1016/0950-4214(94)80005-7
Article source: Table 3
Adsorbate N-propane: InChIKey ATUOYWHBWRKTHZ-UHFFFAOYSA-N
Adsorbate Propene: InChIKey QQONPFPTGQHPMA-UHFFFAOYSA-N
Kind: experiment
Temperature: 293 K
Tabular data in the source: 0
pressure (bar)	N-propane fraction	N-propane uptake (mmol/g)	Propene fraction	Propene uptake (mmol/g)	total uptake (mmol/g)
0.004	0.833	0.228	0.167	0.94	
0.029598	0.743	0.343	0.257	1.552	
0.226781	0.606	0.241	0.394	1.997	
0.531023	0.466	0.152	0.534	2.191	
0.705675	0.424	0.115	0.576	2.23	
0.855796	0.393	0.111	0.607	2.292	
