Adsorption isotherm of Propene, Ethene on Zeolite 13X
DOI: 10.1016/0950-4214(94)80005-7
Article source: Table 3
Adsorbate Propene: InChIKey QQONPFPTGQHPMA-UHFFFAOYSA-N
Adsorbate Ethene: InChIKey VGGSQFUCUMXWEO-UHFFFAOYSA-N
Kind: experiment
Temperature: 293 K
Tabular data in the source: 0
pressure (bar)	Propene fraction	Propene uptake (mmol/g)	Ethene fraction	Ethene uptake (mmol/g)	total uptake (mmol/g)
0.005866	0.295	1.234	0.705	0.114	
0.061195	0.468	2.007	0.532	0.131	
0.343172	0.725	2.32	0.275	0.071	
0.548755	0.78	2.396	0.22	0.059	
0.720207	0.805	2.437	0.195	0.054	
0.865395	0.819	2.475	0.181	0.051	
