Adsorption isotherm of N-propane on Zeolite 13X
DOI: 10.1016/0950-4214(94)80005-7
Article source: Table 1
Adsorbate N-propane: InChIKey ATUOYWHBWRKTHZ-UHFFFAOYSA-N
Kind: experiment
Temperature: 293 K
Tabular data in the source: 0
pressure (bar)	uptake (mmol/g)
0.002533	0.221
0.005733	0.517
0.009999	0.884
0.012532	1.059
0.015332	1.177
0.026265	1.476
0.032664	1.569
0.041463	1.673
0.094526	1.857
0.099059	1.881
0.243713	2.016
0.246913	2.026
0.334639	2.082
0.528357	2.127
0.68781	2.164
0.922324	2.196
