Adsorption isotherm of Carbon Dioxide, Ethene on Zeolite 13X
DOI: 10.1016/0950-4214(94)80005-7
Article source: Table 3
Adsorbate Carbon Dioxide: InChIKey CURLTUGMZLYLDI-UHFFFAOYSA-N
Adsorbate Ethene: InChIKey VGGSQFUCUMXWEO-UHFFFAOYSA-N
Kind: experiment
Temperature: 293 K
Tabular data in the source: 0
pressure (bar)	Carbon Dioxide fraction	Carbon Dioxide uptake (mmol/g)	Ethene fraction	Ethene uptake (mmol/g)	total uptake (mmol/g)
0.008666	0.662	0.426	0.338	0.104	
0.022265	0.665	0.842	0.335	0.205	
0.054662	0.702	1.379	0.298	0.335	
0.120257	0.711	1.885	0.289	0.451	
0.24878	0.713	2.322	0.287	0.543	
0.465428	0.707	2.684	0.293	0.591	
0.646347	0.705	2.851	0.295	0.6	
0.908859	0.707	3.007	0.293	0.596	
