Adsorption isotherm of Carbon Dioxide, Ethene on Zeolite 13X
DOI: 10.1016/0950-4214(94)80005-7
Article source: Table 3
Adsorbate Carbon Dioxide: InChIKey CURLTUGMZLYLDI-UHFFFAOYSA-N
Adsorbate Ethene: InChIKey VGGSQFUCUMXWEO-UHFFFAOYSA-N
Kind: experiment
Temperature: 293 K
Tabular data in the source: 0
pressure (bar)	Carbon Dioxide fraction	Carbon Dioxide uptake (mmol/g)	Ethene fraction	Ethene uptake (mmol/g)	total uptake (mmol/g)
0.006799	0.765	0.497	0.235	0.054	
0.028531	0.832	1.146	0.168	0.124	
0.067594	0.85	1.759	0.15	0.19	
0.088393	0.857	1.954	0.143	0.211	
0.145188	0.859	2.322	0.141	0.248	
0.191184	0.851	2.488	0.149	0.261	
0.297709	0.853	2.786	0.147	0.287	
0.683544	0.848	3.264	0.152	0.305	
0.881794	0.849	3.386	0.151	0.302	
