Adsorption isotherm of Propene on Zeolite 13X
DOI: 10.1016/0950-4214(94)80005-7
Article source: Table 1
Adsorbate Propene: InChIKey QQONPFPTGQHPMA-UHFFFAOYSA-N
Kind: experiment
Temperature: 293 K
Tabular data in the source: 0
pressure (bar)	uptake (mmol/g)
0.000133	0.832
0.001867	1.41
0.003733	1.653
0.010532	1.891
0.034397	2.1
0.101592	2.239
0.28331	2.361
0.500359	2.426
0.717808	2.473
