Adsorption isotherm of Carbon Dioxide on Zeolite 13X
DOI: 10.1016/0950-4214(94)80005-7
Article source: Table 1
Adsorbate Carbon Dioxide: InChIKey CURLTUGMZLYLDI-UHFFFAOYSA-N
Kind: experiment
Temperature: 293 K
Tabular data in the source: 0
pressure (bar)	uptake (mmol/g)
0.002	0.292
0.008133	0.651
0.020798	1.078
0.045596	1.634
0.055195	1.787
0.089593	2.161
0.148121	2.605
0.24078	2.982
0.336906	3.232
0.393568	3.361
0.655146	3.636
0.746739	3.708
0.914325	3.791
