Adsorption isotherm of N-propane, Carbon Dioxide on Zeolite 13X
DOI: 10.1016/0950-4214(94)80005-7
Article source: Table 3
Adsorbate N-propane: InChIKey ATUOYWHBWRKTHZ-UHFFFAOYSA-N
Adsorbate Carbon Dioxide: InChIKey CURLTUGMZLYLDI-UHFFFAOYSA-N
Kind: experiment
Temperature: 293 K
Tabular data in the source: 0
pressure (bar)	N-propane fraction	N-propane uptake (mmol/g)	Carbon Dioxide fraction	Carbon Dioxide uptake (mmol/g)	total uptake (mmol/g)
0.004133	0.742	0.225	0.258	0.222	
0.015199	0.553	0.596	0.447	0.594	
0.041863	0.481	0.956	0.519	0.959	
0.103591	0.533	1.212	0.467	1.202	
0.294909	0.601	1.415	0.399	1.328	
0.638881	0.625	1.557	0.375	1.319	
0.938456	0.634	1.679	0.366	1.306	
