Adsorption isotherm of Carbon Dioxide, Propene on Zeolite 13X
DOI: 10.1016/0950-4214(94)80005-7
Article source: Table 3
Adsorbate Carbon Dioxide: InChIKey CURLTUGMZLYLDI-UHFFFAOYSA-N
Adsorbate Propene: InChIKey QQONPFPTGQHPMA-UHFFFAOYSA-N
Kind: experiment
Temperature: 293 K
Tabular data in the source: 0
pressure (bar)	Carbon Dioxide fraction	Carbon Dioxide uptake (mmol/g)	Propene fraction	Propene uptake (mmol/g)	total uptake (mmol/g)
0.0032	0.792	0.243	0.208	0.989	
0.023198	0.655	0.388	0.345	1.637	
0.083593	0.488	0.429	0.512	1.909	
0.23878	0.351	0.441	0.649	2.055	
0.437564	0.287	0.455	0.713	2.129	
0.655279	0.253	0.474	0.747	2.176	
0.813666	0.239	0.488	0.761	2.206	
