Adsorption isotherm of Ethene on Zeolite 13X
DOI: 10.1016/0950-4214(94)80005-7
Article source: Table 1
Adsorbate Ethene: InChIKey VGGSQFUCUMXWEO-UHFFFAOYSA-N
Kind: experiment
Temperature: 293 K
Tabular data in the source: 0
pressure (bar)	uptake (mmol/g)
0.002266	0.158
0.014665	0.708
0.022398	0.957
0.033331	1.186
0.068528	1.63
0.095592	1.834
0.135189	2.018
0.205716	2.22
0.382635	2.496
0.625682	2.603
0.863929	2.641
