Adsorption isotherm of Propene, Ethene on Zeolite 13X
DOI: 10.1016/0950-4214(94)80005-7
Article source: Table 3
Adsorbate Propene: InChIKey QQONPFPTGQHPMA-UHFFFAOYSA-N
Adsorbate Ethene: InChIKey VGGSQFUCUMXWEO-UHFFFAOYSA-N
Kind: experiment
Temperature: 293 K
Tabular data in the source: 0
pressure (bar)	Propene fraction	Propene uptake (mmol/g)	Ethene fraction	Ethene uptake (mmol/g)	total uptake (mmol/g)
0.007733	0.121	0.999	0.879	0.234	
0.026398	0.162	1.485	0.838	0.322	
0.072661	0.229	1.797	0.771	0.328	
0.24118	0.392	2.11	0.608	0.24	
0.467295	0.523	2.266	0.477	0.188	
0.793535	0.612	2.366	0.388	0.156	
