Adsorption isotherm of N-propane, Ethene on Zeolite 13X
DOI: 10.1016/0950-4214(94)80005-7
Article source: Table 3
Adsorbate N-propane: InChIKey ATUOYWHBWRKTHZ-UHFFFAOYSA-N
Adsorbate Ethene: InChIKey VGGSQFUCUMXWEO-UHFFFAOYSA-N
Kind: experiment
Temperature: 293 K
Tabular data in the source: 0
pressure (bar)	N-propane fraction	N-propane uptake (mmol/g)	Ethene fraction	Ethene uptake (mmol/g)	total uptake (mmol/g)
0.007466	0.804	0.539	0.196	0.134	
0.018665	0.729	0.997	0.271	0.246	
0.057195	0.739	1.417	0.261	0.347	
0.150654	0.766	1.62	0.234	0.395	
0.324507	0.789	1.723	0.211	0.424	
0.541289	0.803	1.768	0.197	0.445	
0.780202	0.811	1.784	0.189	0.462	
