Adsorption isotherm of N-propane, Ethene on Zeolite 13X
DOI: 10.1016/0950-4214(94)80005-7
Article source: Table 3
Adsorbate N-propane: InChIKey ATUOYWHBWRKTHZ-UHFFFAOYSA-N
Adsorbate Ethene: InChIKey VGGSQFUCUMXWEO-UHFFFAOYSA-N
Kind: experiment
Temperature: 293 K
Tabular data in the source: 0
pressure (bar)	N-propane fraction	N-propane uptake (mmol/g)	Ethene fraction	Ethene uptake (mmol/g)	total uptake (mmol/g)
0.014399	0.148	0.153	0.852	0.607	
0.036664	0.124	0.267	0.876	1.048	
0.08666	0.111	0.376	0.889	1.448	
0.162787	0.118	0.44	0.882	1.661	
0.292376	0.127	0.491	0.873	1.807	
0.516224	0.145	0.532	0.855	1.918	
0.780069	0.159	0.557	0.841	1.989	
