Adsorption isotherm of N-propane, Propene on Zeolite 13X
DOI: 10.1016/0950-4214(94)80005-7
Article source: Table 3
Adsorbate N-propane: InChIKey ATUOYWHBWRKTHZ-UHFFFAOYSA-N
Adsorbate Propene: InChIKey QQONPFPTGQHPMA-UHFFFAOYSA-N
Kind: experiment
Temperature: 293 K
Tabular data in the source: 0
pressure (bar)	N-propane fraction	N-propane uptake (mmol/g)	Propene fraction	Propene uptake (mmol/g)	total uptake (mmol/g)
0.006399	0.938	0.461	0.063	0.474	
0.070128	0.916	0.885	0.084	1.015	
0.314374	0.877	0.805	0.123	1.337	
0.554488	0.843	0.691	0.157	1.541	
0.805667	0.803	0.604	0.197	1.695	
0.92979	0.785	0.573	0.215	1.759	
