Adsorption isotherm of N-propane, Propene on Zeolite 13X
DOI: 10.1016/0950-4214(94)80005-7
Article source: Table 3
Adsorbate N-propane: InChIKey ATUOYWHBWRKTHZ-UHFFFAOYSA-N
Adsorbate Propene: InChIKey QQONPFPTGQHPMA-UHFFFAOYSA-N
Kind: experiment
Temperature: 293 K
Tabular data in the source: 0
pressure (bar)	N-propane fraction	N-propane uptake (mmol/g)	Propene fraction	Propene uptake (mmol/g)	total uptake (mmol/g)
0.053596	0.993	1.312	0.007	0.476	
0.218915	0.97	1.432	0.03	0.621	
0.324907	0.964	1.416	0.036	0.688	
0.460762	0.959	1.38	0.041	0.747	
0.576753	0.956	1.373	0.044	0.81	
0.834598	0.946	1.317	0.054	0.925	
