Adsorption isotherm of N-propane, Propene on Zeolite 13X
DOI: 10.1016/0950-4214(94)80005-7
Article source: Table 3
Adsorbate N-propane: InChIKey ATUOYWHBWRKTHZ-UHFFFAOYSA-N
Adsorbate Propene: InChIKey QQONPFPTGQHPMA-UHFFFAOYSA-N
Kind: experiment
Temperature: 293 K
Tabular data in the source: 0
pressure (bar)	N-propane fraction	N-propane uptake (mmol/g)	Propene fraction	Propene uptake (mmol/g)	total uptake (mmol/g)
0.006266	0.617	0.15	0.383	1.419	
0.091192	0.425	0.151	0.575	2.025	
0.249446	0.348	0.087	0.652	2.173	
0.456762	0.27	0.058	0.73	2.253	
0.640214	0.233	0.044	0.767	2.292	
0.827932	0.208	0.036	0.792	2.316	
