Adsorption isotherm of N-propane, Ethene on Zeolite 13X
DOI: 10.1016/0950-4214(94)80005-7
Article source: Table 3
Adsorbate N-propane: InChIKey ATUOYWHBWRKTHZ-UHFFFAOYSA-N
Adsorbate Ethene: InChIKey VGGSQFUCUMXWEO-UHFFFAOYSA-N
Kind: experiment
Temperature: 293 K
Tabular data in the source: 0
pressure (bar)	N-propane fraction	N-propane uptake (mmol/g)	Ethene fraction	Ethene uptake (mmol/g)	total uptake (mmol/g)
0.007733	0.466	0.299	0.534	0.299	
0.018798	0.404	0.523	0.596	0.518	
0.035597	0.367	0.744	0.633	0.73	
0.078127	0.35	0.952	0.65	0.917	
0.200117	0.392	1.104	0.608	1.039	
0.403967	0.428	1.192	0.572	1.104	
0.721407	0.462	1.235	0.538	1.153	
