Adsorption isotherm of Carbon Dioxide, Ethene on Zeolite 13X
DOI: 10.1016/0950-4214(94)80005-7
Article source: Table 3
Adsorbate Carbon Dioxide: InChIKey CURLTUGMZLYLDI-UHFFFAOYSA-N
Adsorbate Ethene: InChIKey VGGSQFUCUMXWEO-UHFFFAOYSA-N
Kind: experiment
Temperature: 293 K
Tabular data in the source: 0
pressure (bar)	Carbon Dioxide fraction	Carbon Dioxide uptake (mmol/g)	Ethene fraction	Ethene uptake (mmol/g)	total uptake (mmol/g)
0.005466	0.024	0.073	0.976	0.286	
0.027998	0.076	0.217	0.924	0.843	
0.057329	0.088	0.322	0.912	1.243	
0.104125	0.101	0.424	0.899	1.622	
0.209449	0.1	0.518	0.9	1.917	
0.391701	0.096	0.605	0.904	2.121	
0.633015	0.098	0.673	0.902	2.216	
0.780336	0.099	0.704	0.901	2.239	
0.924724	0.1	0.736	0.9	2.266	
