Adsorption isotherm of Carbon Dioxide, Propene on Zeolite 13X
DOI: 10.1016/0950-4214(94)80005-7
Article source: Table 3
Adsorbate Carbon Dioxide: InChIKey CURLTUGMZLYLDI-UHFFFAOYSA-N
Adsorbate Propene: InChIKey QQONPFPTGQHPMA-UHFFFAOYSA-N
Kind: experiment
Temperature: 293 K
Tabular data in the source: 0
pressure (bar)	Carbon Dioxide fraction	Carbon Dioxide uptake (mmol/g)	Propene fraction	Propene uptake (mmol/g)	total uptake (mmol/g)
0.053062	0.982	1.559	0.018	0.409	
0.087726	0.982	1.873	0.018	0.489	
0.143188	0.976	2.069	0.024	0.567	
0.228781	0.973	2.255	0.027	0.642	
0.48196	0.957	2.448	0.043	0.763	
0.808334	0.936	2.547	0.064	0.856	
