Adsorption isotherm of N-propane, Carbon Dioxide on Zeolite 13X
DOI: 10.1016/0950-4214(94)80005-7
Article source: Table 3
Adsorbate N-propane: InChIKey ATUOYWHBWRKTHZ-UHFFFAOYSA-N
Adsorbate Carbon Dioxide: InChIKey CURLTUGMZLYLDI-UHFFFAOYSA-N
Kind: experiment
Temperature: 293 K
Tabular data in the source: 0
pressure (bar)	N-propane fraction	N-propane uptake (mmol/g)	Carbon Dioxide fraction	Carbon Dioxide uptake (mmol/g)	total uptake (mmol/g)
0.0032	0.417	0.302	0.583	0.074	
0.008799	0.288	0.6	0.712	0.148	
0.021332	0.181	1.037	0.819	0.26	
0.043596	0.15	1.465	0.85	0.37	
0.088126	0.139	1.857	0.861	0.474	
0.139589	0.145	2.095	0.855	0.538	
0.276511	0.166	2.374	0.834	0.61	
0.527557	0.21	2.802	0.79	0.648	
