Adsorption isotherm of Carbon Dioxide, Propene on Zeolite 13X
DOI: 10.1016/0950-4214(94)80005-7
Article source: Table 3
Adsorbate Carbon Dioxide: InChIKey CURLTUGMZLYLDI-UHFFFAOYSA-N
Adsorbate Propene: InChIKey QQONPFPTGQHPMA-UHFFFAOYSA-N
Kind: experiment
Temperature: 293 K
Tabular data in the source: 0
pressure (bar)	Carbon Dioxide fraction	Carbon Dioxide uptake (mmol/g)	Propene fraction	Propene uptake (mmol/g)	total uptake (mmol/g)
0.008933	0.955	0.564	0.045	0.577	
0.032397	0.93	0.943	0.07	0.988	
0.103058	0.893	1.167	0.107	1.298	
0.316107	0.798	1.239	0.202	1.542	
0.639147	0.707	1.243	0.293	1.668	
0.8046	0.674	1.263	0.326	1.712	
