Adsorption isotherm of Argon on PCM-4
DOI: 10.1039/B802809e
Adsorbate Argon: InChIKey XKRFYHLGVUSROY-UHFFFAOYSA-N
Temperature: 196 K
Tabular data in the source: 0
pressure (bar)	uptake (ml/g)
0.0829934	4.35725
0.201108	9.42616
0.34933	14.1455
0.453548	16.5925
0.571662	18.9522
0.705988	21.3119
0.856526	23.4967
