Adsorption isotherm of Argon on PCM-4
DOI: 10.1039/B802809e
Adsorbate Argon: InChIKey XKRFYHLGVUSROY-UHFFFAOYSA-N
Temperature: 87 K
Tabular data in the source: 0
pressure (bar)	uptake (ml/g)
0.0667817	10.4249
0.157104	12.6098
0.289114	13.0467
0.444284	13.9207
0.587874	14.3577
0.736096	16.9795
0.879686	18.7274
