Adsorption isotherm of Oxygen on PCM-4
DOI: 10.1039/B802809e
Adsorbate Oxygen: InChIKey MYMOFIZGZYHOMD-UHFFFAOYSA-N
Temperature: 90 K
Tabular data in the source: 0
pressure (bar)	uptake (ml/g)
0.0505699	41.8871
0.18258	43.635
0.335434	44.072
0.506815	44.9459
0.643457	47.5678
0.777783	46.6938
0.893582	47.5678
