Adsorption isotherm of Argon on PCM-4
DOI: 10.1039/B802809e
Adsorbate Argon: InChIKey XKRFYHLGVUSROY-UHFFFAOYSA-N
Temperature: 87 K
Tabular data in the source: 0
pressure (bar)	uptake (ml/g)
0.0111985	56.3073
0.0111985	115.736
0.0135144	84.2736
0.0714136	138.022
0.175632	144.139
0.330802	145.887
0.462812	147.635
0.620298	149.82
0.75694	149.82
0.886634	150.257
