Adsorption isotherm of Nitrogen on PCM-4
DOI: 10.1039/B802809e
Adsorbate Nitrogen: InChIKey IJGRMHOSHXDMSA-UHFFFAOYSA-N
Temperature: 77 K
Tabular data in the source: 0
pressure (bar)	uptake (ml/g)
0.00656653	1.91951
0.0737296	13.0624
0.184896	14.0456
0.284483	15.3565
0.416493	16.3397
0.513763	16.9951
0.645773	18.6338
0.793995	19.2893
