Adsorption isotherm of Nitrogen on PCM-4
DOI: 10.1039/B802809e
Adsorbate Nitrogen: InChIKey IJGRMHOSHXDMSA-UHFFFAOYSA-N
Temperature: 77 K
Tabular data in the source: 0
pressure (bar)	uptake (ml/g)
0.0111985	36.9867
0.0111985	50.7514
0.0111985	82.8691
0.0250943	95.6506
0.0922573	105.483
0.20574	110.071
0.340066	112.037
0.479024	114.004
0.608718	114.659
0.763888	114.331
0.872738	115.314
