Adsorption isotherm of Nitrogen on PCM-4
DOI: 10.1039/B802809e
Adsorbate Nitrogen: InChIKey IJGRMHOSHXDMSA-UHFFFAOYSA-N
Temperature: 196 K
Tabular data in the source: 0
pressure (bar)	uptake (ml/g)
0.18258	8.46481
0.307642	12.2228
0.425756	14.8446
0.576294	17.8161
0.696725	19.4766
0.84263	21.2245
