Adsorption isotherm of Oxygen on PCM-4
DOI: 10.1039/B802809e
Adsorbate Oxygen: InChIKey MYMOFIZGZYHOMD-UHFFFAOYSA-N
Temperature: 196 K
Tabular data in the source: 0
pressure (bar)	uptake (ml/g)
0.203424	11.1741
0.328486	16.3304
0.462812	20.2631
0.604086	23.9337
0.73378	26.7304
0.868106	29.1774
