Adsorption isotherm of Oxygen on PCM-4
DOI: 10.1039/B802809e
Adsorbate Oxygen: InChIKey MYMOFIZGZYHOMD-UHFFFAOYSA-N
Temperature: 90 K
Tabular data in the source: 0
pressure (bar)	uptake (ml/g)
0.00656653	47.1308
0.0111985	91.2652
0.0181464	123.164
0.0644657	142.828
0.161736	152.005
0.319222	156.374
0.430388	157.685
0.555451	160.307
0.692093	160.744
0.833367	162.929
