Adsorption isotherm of Nitrogen on MIL-53(Al)
DOI: 10.1007/s11172-015-0973-8
Article source: Figure 4
Adsorbate Nitrogen: InChIKey IJGRMHOSHXDMSA-UHFFFAOYSA-N
Kind: experiment
Temperature: 77 K
Tabular data in the source: 0
pressure (bar)	uptake (cm3(STP)/g)
0	0
0.002445	146
0.007335	334
0.00978	292
0.01467	336
0.02445	342
0.02934	304
0.0489	318
0.051345	348
0.066015	350
0.06846	324
0.08802	326
0.100244	330
0.146699	358
0.151589	340
0.198044	346
0.200489	364
0.246944	366
0.249389	352
0.295844	372
0.298289	360
0.347188	376
0.398533	372
0.449878	374
0.498778	390
0.501222	380
0.547677	388
0.596577	400
0.601467	390
0.647922	406
0.650367	394
0.699267	410
0.750611	406
0.797066	416
0.845966	432
0.848411	424
0.897311	434
0.94621	450
0.948655	446
0.99511	482
